
     RDKit          3D

 12 11  0  0  0  0  0  0  0  0999 V2000
   11.2900   -4.7290   16.3480 C   0  0  0  0  0  0  0  0  0  0  0  0
   11.7480   -5.5950   17.4350 C   0  0  0  0  0  0  0  0  0  1  0  0
   11.3970   -5.0160   18.8250 C   0  0  2  0  0  0  0  0  0  2  0  0
    9.9610   -4.6280   19.0060 C   0  0  0  0  0  0  0  0  0  3  0  0
   12.1490   -3.6820   19.0080 C   0  0  0  0  0  0  0  0  0  4  0  0
   12.9420   -3.7280   20.3030 C   0  0  1  0  0  0  0  0  0  5  0  0
   13.9560   -4.7690   20.0190 C   0  0  0  0  0  0  0  0  0  6  0  0
   13.4710   -2.2750   20.7340 C   0  0  0  0  0  0  0  0  0  7  0  0
   14.4470   -1.7950   19.7380 C   0  0  0  0  0  0  0  0  0  8  0  0
   14.9030   -0.4420   20.3530 C   0  0  0  0  0  0  0  0  0  9  0  0
   14.9150   -0.3380   21.6050 O   0  0  0  0  0  0  0  0  0 10  0  0
   15.2010    0.4730   19.5530 O   0  0  0  0  0  0  0  0  0 11  0  0
  2  1  1  1
  3  2  1  0
  3  4  1  6
  5  3  1  1
  6  5  1  0
  6  7  1  6
  8  6  1  0
  8  9  1  1
  9 10  1  1
 11 10  2  0
 12 10  1  0
M  END
$$$$
