
     RDKit          3D

 68 71  0  0  0  0  0  0  0  0999 V2000
  -11.0390  -31.1770   34.5480 O   0  0  0  0  0  0  0  0  0 11  0  0
  -11.1600  -31.4750   33.3680 C   0  0  0  0  0  0  0  0  0 10  0  0
  -11.6740  -32.8620   32.9650 C   0  0  0  0  0  0  0  0  0  9  0  0
  -10.9240  -34.0360   33.6310 C   0  0  1  0  0  0  0  0  0  8  0  0
  -11.7470  -35.3590   33.6850 C   0  0  1  0  0  0  0  0  0  6  0  0
  -12.0160  -35.9700   32.3020 C   0  0  0  0  0  0  0  0  0  7  0  0
  -11.1260  -36.3950   34.6510 C   0  0  0  0  0  0  0  0  0  5  0  0
  -12.0840  -37.4690   35.2150 C   0  0  1  0  0  0  0  0  0  4  0  0
  -11.5880  -38.8970   34.9390 C   0  0  0  0  0  0  0  0  0  3  0  0
  -12.2180  -40.0620   35.7450 C   0  0  2  0  0  0  0  0  0  2  0  0
  -13.3620  -40.6060   35.0650 O   0  0  0  0  0  0  0  0  0  1  0  0
  -13.0600  -41.4630   33.9540 C   0  0  0  0  0  0  0  0  0  0  0  0
  -12.2000  -37.2910   36.7210 C   0  0  0  0  0  0  0  0  0 61  0  0
  -13.1690  -38.3080   37.3140 C   0  0  0  0  0  0  0  0  0 62  0  0
  -12.5690  -39.7070   37.2030 C   0  0  1  0  0  0  0  0  0 63  0  0
  -13.4650  -40.6800   37.7680 O   0  0  0  0  0  0  0  0  0 64  0  0
  -12.8020  -41.8220   38.3170 C   0  0  0  0  0  0  0  0  0 65  0  0
  -13.6260  -43.0550   37.9990 C   0  0  0  0  0  0  0  0  0 66  0  0
  -13.3230  -43.4080   36.6480 O   0  0  0  0  0  0  0  0  0 67  0  0
  -10.7930  -30.4410   32.3220 C   0  0  2  0  0  0  0  0  0 12  0  0
   -9.4090  -29.8470   32.6370 C   0  0  0  0  0  0  0  0  0 13  0  0
  -11.7330  -29.2490   32.1710 C   0  0  0  0  0  0  0  0  0 14  0  0
  -13.0810  -29.1650   32.3870 C   0  0  0  0  0  0  0  0  0 15  0  0
  -13.9080  -30.3720   32.8180 C   0  0  0  0  0  0  0  0  0 16  0  0
  -13.7720  -27.8050   32.1160 C   0  0  1  0  0  0  0  0  0 17  0  0
  -14.9760  -27.5940   32.8990 O   0  0  0  0  0  0  0  0  0 18  0  0
  -12.9200  -26.5170   32.2920 C   0  0  2  0  0  0  0  0  0 19  0  0
  -13.7850  -25.5780   32.9700 O   0  0  0  0  0  0  0  0  0 20  0  0
  -13.9620  -25.7390   34.3740 C   0  0  0  0  0  0  0  0  0 21  0  0
  -12.4180  -25.9250   30.9520 C   0  0  0  0  0  0  0  0  0 22  0  0
  -13.2420  -25.3970   30.2260 O   0  0  0  0  0  0  0  0  0 23  0  0
  -10.9790  -25.9030   30.4200 C   0  0  2  0  0  0  0  0  0 24  0  0
  -10.1570  -24.9800   31.3250 C   0  0  0  0  0  0  0  0  0 25  0  0
  -10.8390  -25.4190   28.9400 C   0  0  0  0  0  0  0  0  0 26  0  0
  -11.2360  -26.3560   27.7610 C   0  0  2  0  0  0  0  0  0 27  0  0
  -12.0010  -25.6460   26.6310 C   0  0  0  0  0  0  0  0  0 28  0  0
  -12.1000  -27.4940   28.2550 C   0  0  0  0  0  0  0  0  0 29  0  0
  -11.7800  -28.7830   28.3360 C   0  0  0  0  0  0  0  0  0 30  0  0
  -10.5170  -29.4110   27.9400 C   0  0  0  0  0  0  0  0  0 31  0  0
  -10.3660  -30.7220   28.1150 C   0  0  0  0  0  0  0  0  0 32  0  0
  -11.4850  -31.4900   28.6690 C   0  0  0  0  0  0  0  0  0 33  0  0
  -11.5260  -32.8160   28.8180 C   0  0  0  0  0  0  0  0  0 34  0  0
  -12.7780  -33.4340   29.3780 C   0  0  0  0  0  0  0  0  0 35  0  0
  -10.4050  -33.7300   28.4410 C   0  0  2  0  0  0  0  0  0 36  0  0
  -10.9850  -34.7180   27.5840 O   0  0  0  0  0  0  0  0  0 37  0  0
  -11.0750  -34.3370   26.2100 C   0  0  0  0  0  0  0  0  0 38  0  0
   -9.7740  -34.3510   29.6880 C   0  0  0  0  0  0  0  0  0 39  0  0
   -9.6460  -35.8730   29.6180 C   0  0  2  0  0  0  0  0  0 40  0  0
   -9.2960  -36.3280   30.9310 O   0  0  0  0  0  0  0  0  0 47  0  0
   -8.5890  -36.2330   28.5650 C   0  0  0  0  0  0  0  0  0 41  0  0
   -8.1670  -37.6870   28.6520 C   0  0  0  0  0  0  0  0  0 42  0  0
   -7.7590  -38.0090   30.0850 C   0  0  2  0  0  0  0  0  0 43  0  0
   -7.1950  -39.4300   30.2070 C   0  0  0  0  0  0  0  0  0 44  0  0
   -8.9280  -37.7090   31.0450 C   0  0  2  0  0  0  0  0  0 45  0  0
  -10.0970  -38.4740   30.7080 O   0  0  0  0  0  0  0  0  0 46  0  0
   -8.5190  -38.0490   32.4730 C   0  0  0  0  0  0  0  0  0 48  0  0
   -9.1680  -38.8920   33.0700 O   0  0  0  0  0  0  0  0  0 49  0  0
   -7.3480  -37.4400   33.1420 C   0  0  0  0  0  0  0  0  0 50  0  0
   -6.2300  -37.8850   32.8960 O   0  0  0  0  0  0  0  0  0 51  0  0
   -7.5060  -36.4300   34.0260 N   0  0  0  0  0  0  0  0  0 52  0  0
   -7.2980  -35.0230   33.6290 C   0  0  1  0  0  0  0  0  0 57  0  0
   -8.4850  -34.1040   33.8290 C   0  0  0  0  0  0  0  0  0 58  0  0
   -8.4570  -33.2530   34.6960 O   0  0  0  0  0  0  0  0  0 59  0  0
   -9.6630  -34.2080   32.9660 O   0  0  0  0  0  0  0  0  0 60  0  0
   -7.7900  -36.5770   35.4470 C   0  0  0  0  0  0  0  0  0 53  0  0
   -6.4210  -36.4000   36.0830 C   0  0  0  0  0  0  0  0  0 54  0  0
   -5.8600  -35.0070   35.8100 C   0  0  0  0  0  0  0  0  0 55  0  0
   -6.0460  -34.5150   34.3780 C   0  0  0  0  0  0  0  0  0 56  0  0
  2  1  2  0
  3  2  1  0
  4  3  1  6
  5  4  1  0
  5  6  1  6
  7  5  1  0
  8  7  1  1
  9  8  1  0
 10  9  1  0
 10 11  1  6
 12 11  1  0
 13  8  1  0
 14 13  1  0
 15 14  1  0
 15 10  1  0
 15 16  1  6
 17 16  1  0
 18 17  1  0
 19 18  1  0
 20  2  1  0
 20 21  1  1
 22 20  1  0
 23 22  2  3
 23 24  1  0
 25 23  1  0
 25 26  1  1
 27 25  1  0
 27 28  1  6
 29 28  1  0
 30 27  1  0
 31 30  2  0
 32 30  1  0
 32 33  1  1
 34 32  1  0
 35 34  1  0
 35 36  1  6
 37 35  1  0
 38 37  2  3
 39 38  1  0
 40 39  2  3
 41 40  1  0
 42 41  2  3
 43 42  1  0
 44 42  1  0
 44 45  1  6
 46 45  1  0
 47 44  1  0
 48 47  1  1
 49 48  1  0
 50 48  1  0
 51 50  1  0
 52 51  1  0
 52 53  1  6
 54 52  1  0
 54 49  1  0
 54 55  1  6
 56 54  1  0
 57 56  2  0
 58 56  1  0
 59 58  2  0
 60 58  1  0
 61 60  1  0
 62 61  1  0
 63 62  2  0
 64  4  1  0
 64 62  1  0
 65 60  1  0
 66 65  1  0
 67 66  1  0
 68 67  1  0
 61 68  1  1
M  END
$$$$
