
     RDKit          3D

 23 25  0  0  0  0  0  0  0  0999 V2000
    2.4450  -23.8480   26.4300 C   0  0  0  0  0  0  0  0  0  2  0  0
    3.6850  -24.4620   26.5170 C   0  0  0  0  0  0  0  0  0  3  0  0
    4.6670  -23.9470   27.3520 C   0  0  0  0  0  0  0  0  0  4  0  0
    4.4070  -22.7980   28.0820 C   0  0  0  0  0  0  0  0  0 20  0  0
    3.1740  -22.1760   27.9880 C   0  0  0  0  0  0  0  0  0 22  0  0
    2.1960  -22.7020   27.1660 C   0  0  0  0  0  0  0  0  0  1  0  0
    6.0340  -24.6310   27.4590 C   0  0  2  0  0  0  0  0  0  5  0  0
    7.0070  -23.9890   26.4640 C   0  0  0  0  0  0  0  0  0  6  0  0
    8.9540  -25.5160   26.5410 C   0  0  0  0  0  0  0  0  0  8  0  0
   10.2760  -25.4290   26.9700 C   0  0  0  0  0  0  0  0  0  9  0  0
    9.3030  -23.5490   27.3090 C   0  0  0  0  0  0  0  0  0 11  0  0
    4.9920  -26.7490   27.9240 C   0  0  0  0  0  0  0  0  0 13  0  0
    5.5940  -27.1830   29.2620 C   0  0  0  0  0  0  0  0  0 14  0  0
    5.1180  -26.7110   30.4940 C   0  0  0  0  0  0  0  0  0 18  0  0
    7.0790  -28.3690   30.7290 C   0  0  0  0  0  0  0  0  0 16  0  0
    6.6830  -28.1020   29.4040 C   0  0  0  0  0  0  0  0  0 15  0  0
    8.3870  -24.3420   26.7700 N   0  0  0  0  0  0  0  0  0  7  0  0
   10.4450  -24.2060   27.4360 N   0  0  0  0  0  0  0  0  0 10  0  0
    5.9230  -26.0040   27.1720 O   0  0  0  0  0  0  0  0  0 12  0  0
    6.0540  -27.4330   31.6940 S   0  0  0  0  0  0  0  0  0 17  0  0
    0.6110  -21.8910   27.0600 Cl  0  0  0  0  0  0  0  0  0  0  0  0
    5.6440  -22.0850   29.1500 Cl  0  0  0  0  0  0  0  0  0 21  0  0
    3.7950  -25.5590   30.7650 Cl  0  0  0  0  0  0  0  0  0 19  0  0
  2  1  2  0
  3  2  1  0
  4  3  2  0
  5  4  1  0
  6  1  1  0
  6  5  2  0
  7  3  1  0
  7  8  1  6
 10  9  2  0
 13 12  1  0
 14 13  2  0
 16 15  2  0
 16 13  1  0
 17  9  1  0
 17  8  1  0
 17 11  1  0
 18 10  1  0
 18 11  2  0
 19 12  1  0
 19  7  1  0
 20 14  1  0
 20 15  1  0
 21  6  1  0
 22  4  1  0
 23 14  1  0
M  END
$$$$
