
     RDKit          3D

 13 13  0  0  0  0  0  0  0  0999 V2000
   18.4690   51.9850  139.1680 C   0  0  1  0  0  0  0  0  0 11  0  0
   19.3930   51.3440  138.0980 C   0  0  1  0  0  0  0  0  0  3  0  0
   19.0250   49.8990  137.8080 C   0  0  0  0  0  0  0  0  0  2  0  0
   18.7700   53.4740  139.2540 C   0  0  1  0  0  0  0  0  0  9  0  0
   20.0590   48.0010  137.0560 C   0  0  0  0  0  0  0  0  0  0  0  0
   19.9290   49.4000  136.8200 O   0  0  0  0  0  0  0  0  0  1  0  0
   19.2760   52.0030  136.8090 O   0  0  0  0  0  0  0  0  0  4  0  0
   19.7780   53.2950  137.0450 C   0  0  1  0  0  0  0  0  0  5  0  0
   20.0540   53.9390  135.8210 O   0  0  0  0  0  0  0  0  0  6  0  0
   18.6430   53.9750  137.8270 C   0  0  2  0  0  0  0  0  0  7  0  0
   18.6570   55.3800  137.7680 O   0  0  0  0  0  0  0  0  0  8  0  0
   17.8380   54.1890  140.0810 O   0  0  0  0  0  0  0  0  0 10  0  0
   17.0960   51.7920  138.7810 O   0  0  0  0  0  0  0  0  0 12  0  0
  2  1  1  0
  2  3  1  6
  4  1  1  0
  6  5  1  0
  6  3  1  0
  7  2  1  0
  8  7  1  0
  8  9  1  6
 10  8  1  0
 10  4  1  0
 10 11  1  1
  4 12  1  1
  1 13  1  6
M  END
$$$$
