
     RDKit          3D

 16 15  0  0  0  0  0  0  0  0999 V2000
    6.0430   37.5560   53.9800 C   0  0  0  0  0  0  0  0  0 13  0  0
    5.7770   38.4220   53.1130 O   0  0  0  0  0  0  0  0  0 14  0  0
    5.2580   37.4160   54.9510 O   0  0  0  0  0  0  0  0  0 15  0  0
    7.3090   36.7230   53.8190 C   0  0  0  0  0  0  0  0  0 12  0  0
    8.3350   37.1770   54.8270 C   0  0  0  0  0  0  0  0  0 11  0  0
    8.6620   38.6650   54.7050 C   0  0  0  0  0  0  0  0  0 10  0  0
    9.5480   39.0100   55.8760 C   0  0  0  0  0  0  0  0  0  9  0  0
   10.0690   40.4230   55.9050 C   0  0  0  0  0  0  0  0  0  8  0  0
   11.1190   40.4490   56.9980 C   0  0  0  0  0  0  0  0  0  7  0  0
   11.0920   41.6890   57.8600 C   0  0  0  0  0  0  0  0  0  6  0  0
    9.7840   41.8620   58.6010 C   0  0  0  0  0  0  0  0  0  5  0  0
   10.0580   42.3730   60.0010 C   0  0  0  0  0  0  0  0  0  4  0  0
    9.7570   41.3580   61.0780 C   0  0  0  0  0  0  0  0  0  3  0  0
    8.3880   41.4530   61.7030 C   0  0  0  0  0  0  0  0  0  2  0  0
    8.3400   40.6730   62.9950 C   0  0  0  0  0  0  0  0  0  1  0  0
    6.9590   40.1300   63.3220 C   0  0  0  0  0  0  0  0  0  0  0  0
  2  1  2  0
  3  1  1  0
  4  1  1  0
  5  4  1  0
  6  5  1  0
  7  6  1  0
  8  7  1  0
  9  8  1  0
 10  9  1  0
 11 10  1  0
 12 11  1  0
 13 12  1  0
 14 13  1  0
 15 14  1  0
 16 15  1  0
M  END
$$$$
