
     RDKit          3D

 25 28  0  0  0  0  0  0  0  0999 V2000
   20.0250   -7.7880  -18.1450 Cl  0  0  0  0  0  0  0  0  0  0  0  0
   21.4790   -6.7780  -17.9130 C   0  0  0  0  0  0  0  0  0  1  0  0
   22.2820   -6.5520  -19.0350 C   0  0  0  0  0  0  0  0  0  2  0  0
   23.4380   -5.7920  -18.9460 C   0  0  0  0  0  0  0  0  0  3  0  0
   23.7910   -5.2280  -17.7360 C   0  0  0  0  0  0  0  0  0  4  0  0
   23.0190   -5.4220  -16.5870 C   0  0  0  0  0  0  0  0  0  5  0  0
   21.8260   -6.1760  -16.5830 C   0  0  0  0  0  0  0  0  0  6  0  0
   21.0150   -6.4240  -15.2950 C   0  0  2  0  0  0  0  0  0  7  0  0
   19.5860   -5.8860  -15.2570 C   0  0  0  0  0  0  0  0  0  8  0  0
   18.8550   -5.9990  -14.0630 C   0  0  0  0  0  0  0  0  0  9  0  0
   17.5400   -5.5400  -13.9200 C   0  0  0  0  0  0  0  0  0 10  0  0
   16.9110   -4.9230  -14.9810 C   0  0  0  0  0  0  0  0  0 11  0  0
   17.6200   -4.7860  -16.1750 C   0  0  0  0  0  0  0  0  0 12  0  0
   18.9400   -5.2500  -16.3160 C   0  0  0  0  0  0  0  0  0 13  0  0
   21.7390   -5.7540  -14.1170 N   0  0  0  0  0  0  0  0  0 20  0  0
   21.5730   -4.4500  -13.8650 C   0  0  0  0  0  0  0  0  0 24  0  0
   22.3330   -4.1320  -12.7830 N   0  0  0  0  0  0  0  0  0 23  0  0
   22.9740   -5.2490  -12.3770 C   0  0  0  0  0  0  0  0  0 22  0  0
   22.6080   -6.2870  -13.2190 C   0  0  0  0  0  0  0  0  0 21  0  0
   20.9970   -7.9540  -15.1120 C   0  0  0  0  0  0  0  0  0 14  0  0
   19.8190   -8.7210  -14.9370 C   0  0  0  0  0  0  0  0  0 15  0  0
   19.8520  -10.1030  -14.7730 C   0  0  0  0  0  0  0  0  0 16  0  0
   21.0670  -10.7740  -14.7730 C   0  0  0  0  0  0  0  0  0 17  0  0
   22.2480  -10.0540  -14.9520 C   0  0  0  0  0  0  0  0  0 18  0  0
   22.2120   -8.6720  -15.1340 C   0  0  0  0  0  0  0  0  0 19  0  0
  2  1  1  0
  3  2  2  0
  4  3  1  0
  5  4  2  0
  6  5  1  0
  7  2  1  0
  7  6  2  0
  8  7  1  0
  8  9  1  0
 10  9  2  0
 11 10  1  0
 12 11  2  0
 13 12  1  0
 14  9  1  0
 14 13  2  0
  8 15  1  1
 16 15  1  0
 17 16  2  0
 18 17  1  0
 19 15  1  0
 19 18  2  0
 20  8  1  0
 21 20  2  0
 22 21  1  0
 23 22  2  0
 24 23  1  0
 25 20  1  0
 25 24  2  0
M  END
$$$$
