
     RDKit          3D

 20 21  0  0  0  0  0  0  0  0999 V2000
    8.4250  -16.9130   21.6170 C   0  0  0  0  0  0  0  0  0  0  0  0
    8.4260  -17.5500   20.2280 C   0  0  2  0  0  0  0  0  0  1  0  0
    9.2070  -16.6780   19.2370 C   0  0  0  0  0  0  0  0  0  2  0  0
    6.9750  -17.6220   19.7530 C   0  0  0  0  0  0  0  0  0  3  0  0
    8.9830  -18.9820   20.2230 C   0  0  1  0  0  0  0  0  0  4  0  0
   10.4970  -19.1030   20.4910 C   0  0  0  0  0  0  0  0  0  6  0  0
   11.4000  -19.4940   19.5990 C   0  0  0  0  0  0  0  0  0  7  0  0
   11.0280  -19.8520   18.1690 C   0  0  0  0  0  0  0  0  0  8  0  0
   11.6700  -19.1490   17.1650 C   0  0  0  0  0  0  0  0  0  9  0  0
   11.3730  -19.4030   15.8440 C   0  0  0  0  0  0  0  0  0 10  0  0
   10.4200  -20.3540   15.5370 C   0  0  0  0  0  0  0  0  0 11  0  0
    9.7660  -21.0540   16.5350 C   0  0  0  0  0  0  0  0  0 13  0  0
   10.0750  -20.8060   17.8590 C   0  0  0  0  0  0  0  0  0 14  0  0
   10.4960  -19.0180   22.9500 C   0  0  0  0  0  0  0  0  0 16  0  0
   12.3000  -17.8310   23.2360 C   0  0  0  0  0  0  0  0  0 18  0  0
   11.0040  -18.7370   21.7870 N   0  0  0  0  0  0  0  0  0 15  0  0
   11.2960  -18.4580   23.8520 N   0  0  0  0  0  0  0  0  0 17  0  0
   12.1160  -18.0110   21.9510 N   0  0  0  0  0  0  0  0  0 19  0  0
    8.3130  -19.7390   21.2010 O   0  0  0  0  0  0  0  0  0  5  0  0
   10.0260  -20.6820   13.8410 Cl  0  0  0  0  0  0  0  0  0 12  0  0
  2  1  1  1
  3  2  1  1
  4  2  1  1
  2  5  1  0
  6  5  1  0
  7  6  2  3
  8  7  1  0
  9  8  2  0
 10  9  1  0
 11 10  2  0
 12 11  1  0
 13 12  2  0
 13  8  1  0
 16  6  1  0
 16 14  1  0
 17 14  2  0
 17 15  1  0
 18 16  1  0
 18 15  2  0
  5 19  1  1
 20 11  1  0
M  END
$$$$
