
     RDKit          3D

 23 25  0  0  0  0  0  0  0  0999 V2000
   20.4420  -20.4960  -24.4280 C   0  0  0  0  0  0  0  0  0 10  0  0
   18.6770  -22.2900  -24.6310 C   0  0  0  0  0  0  0  0  0 12  0  0
   17.5690  -22.9700  -24.1510 C   0  0  0  0  0  0  0  0  0 13  0  0
   17.5440  -21.5620  -22.2060 C   0  0  0  0  0  0  0  0  0 16  0  0
   18.6520  -20.8830  -22.6860 C   0  0  0  0  0  0  0  0  0 17  0  0
   21.8290  -21.1050  -21.9800 C   0  0  0  0  0  0  0  0  0 19  0  0
   24.2230  -21.2330  -24.4590 C   0  0  0  0  0  0  0  0  0  0  0  0
   22.9280  -20.5510  -24.8970 C   0  0  1  0  0  0  0  0  0  1  0  0
   22.8460  -20.5190  -26.4170 C   0  0  0  0  0  0  0  0  0  3  0  0
   22.2830  -19.4220  -27.0470 C   0  0  0  0  0  0  0  0  0  4  0  0
   22.1990  -19.3920  -28.4290 C   0  0  0  0  0  0  0  0  0  5  0  0
   22.6730  -20.4610  -29.1730 C   0  0  0  0  0  0  0  0  0  6  0  0
   23.2320  -21.5620  -28.5400 C   0  0  0  0  0  0  0  0  0  7  0  0
   23.3160  -21.5920  -27.1580 C   0  0  0  0  0  0  0  0  0  8  0  0
   21.7180  -21.3390  -24.4040 C   0  0  1  0  0  0  0  0  0  9  0  0
   19.2200  -21.2470  -23.8980 C   0  0  0  0  0  0  0  0  0 11  0  0
   17.0020  -22.6060  -22.9380 C   0  0  0  0  0  0  0  0  0 14  0  0
   22.4200  -23.1180  -21.4170 C   0  0  0  0  0  0  0  0  0 21  0  0
   21.9500  -21.8230  -23.0610 N   0  0  0  0  0  0  0  0  0 18  0  0
   22.1180  -21.8990  -20.9500 N   0  0  0  0  0  0  0  0  0 20  0  0
   22.3150  -23.0700  -22.7300 N   0  0  0  0  0  0  0  0  0 22  0  0
   22.8900  -19.2490  -24.3900 O   0  0  0  0  0  0  0  0  0  2  0  0
   15.5730  -23.4810  -22.3200 Cl  0  0  0  0  0  0  0  0  0 15  0  0
  3  2  2  0
  5  4  1  0
  8  7  1  6
  9  8  1  0
 10  9  2  0
 11 10  1  0
 12 11  2  0
 13 12  1  0
 14 13  2  0
 14  9  1  0
 15  1  1  1
 15  8  1  0
 16  2  1  0
 16  5  2  0
 16  1  1  0
 17  3  1  0
 17  4  2  0
 19 15  1  0
 19  6  1  0
 20 18  1  0
 20  6  2  0
 21 19  1  0
 21 18  2  0
 22  8  1  0
 23 17  1  0
M  END
$$$$
