
     RDKit          3D

 21 21  0  0  0  0  0  0  0  0999 V2000
   53.6650  -20.3560    2.7770 C   0  0  0  0  0  0  0  0  0  0  0  0
   53.2680  -18.9760    2.5600 N   0  0  0  0  0  0  0  0  0  1  0  0
   51.8290  -18.9460    2.4110 C   0  0  0  0  0  0  0  0  0  2  0  0
   53.8690  -18.4830    1.3240 C   0  0  0  0  0  0  0  0  0  3  0  0
   55.2560  -17.9020    1.6480 C   0  0  0  0  0  0  0  0  0  4  0  0
   55.3230  -16.4030    1.3690 C   0  0  0  0  0  0  0  0  0  5  0  0
   54.0850  -15.7060    1.9270 C   0  0  0  0  0  0  0  0  0  6  0  0
   54.4210  -14.4310    2.7020 C   0  0  0  0  0  0  0  0  0  7  0  0
   53.7690  -13.3250    2.0510 O   0  0  0  0  0  0  0  0  0  8  0  0
   54.6330  -12.3430    1.4130 C   0  0  2  0  0  0  0  0  0  9  0  0
   53.8600  -11.6740    0.2530 C   0  0  0  0  0  0  0  0  0 10  0  0
   54.4580  -10.3710   -0.2890 C   0  0  0  0  0  0  0  0  0 11  0  0
   54.2980   -9.2290    0.6980 C   0  0  0  0  0  0  0  0  0 12  0  0
   55.5490   -8.3660    0.7120 C   0  0  0  0  0  0  0  0  0 13  0  0
   56.0120   -8.0570    2.1200 C   0  0  0  0  0  0  0  0  0 14  0  0
   55.9940  -12.8970    0.9250 C   0  0  0  0  0  0  0  0  0 20  0  0
   57.0980  -11.8280    0.9050 C   0  0  0  0  0  0  0  0  0 19  0  0
   57.8370  -11.7260    2.2430 C   0  0  0  0  0  0  0  0  0 18  0  0
   58.6830  -10.4690    2.3810 C   0  0  0  0  0  0  0  0  0 17  0  0
   57.9250   -9.3610    3.1100 C   0  0  0  0  0  0  0  0  0 16  0  0
   57.5220   -8.2060    2.1900 C   0  0  0  0  0  0  0  0  0 15  0  0
  2  1  1  0
  3  2  1  0
  4  2  1  0
  5  4  1  0
  6  5  1  0
  7  6  1  0
  8  7  1  0
  9  8  1  0
 10  9  1  6
 11 10  1  0
 12 11  1  0
 13 12  1  0
 14 13  1  0
 15 14  1  0
 16 10  1  0
 17 16  1  0
 18 17  1  0
 19 18  1  0
 20 19  1  0
 21 20  1  0
 21 15  1  0
M  END
$$$$
