
     RDKit          3D

 12 13  0  0  0  0  0  0  0  0999 V2000
  -17.7410   89.4810    5.3500 C   0  0  0  0  0  0  0  0  0  3  0  0
  -16.6500   88.8610    4.7440 C   0  0  0  0  0  0  0  0  0  2  0  0
  -16.5790   88.7450    3.3580 C   0  0  0  0  0  0  0  0  0  1  0  0
  -17.6190   89.2440    2.5760 C   0  0  0  0  0  0  0  0  0 11  0  0
  -18.7070   89.8650    3.1890 C   0  0  0  0  0  0  0  0  0 10  0  0
  -18.7800   89.9930    4.5740 C   0  0  0  0  0  0  0  0  0  4  0  0
  -19.8780   90.6260    5.1560 C   0  0  0  0  0  0  0  0  0  5  0  0
  -20.3400   90.4700    6.3940 C   0  0  0  0  0  0  0  0  0  6  0  0
  -21.4290   91.2200    6.5600 N   0  0  0  0  0  0  0  0  0  7  0  0
  -21.6370   91.8490    5.4060 C   0  0  0  0  0  0  0  0  0  8  0  0
  -20.6890   91.4880    4.5480 N   0  0  0  0  0  0  0  0  0  9  0  0
  -15.1590   88.1010    2.6040 Cl  0  0  0  0  0  0  0  0  0  0  0  0
  2  1  2  0
  3  2  1  0
  4  3  2  0
  5  4  1  0
  6  5  2  0
  6  1  1  0
  7  6  1  0
  8  7  2  0
  9  8  1  0
 10  9  2  0
 11 10  1  0
 11  7  1  0
  3 12  1  0
M  END
$$$$
