
     RDKit          3D

 24 27  0  0  0  0  0  0  0  0999 V2000
   92.3790   30.5510   13.3910 C   0  0  0  0  0  0  0  0  0 14  0  0
   92.8160   29.2350   13.5080 C   0  0  0  0  0  0  0  0  0 13  0  0
   92.1990   28.2280   12.7710 C   0  0  0  0  0  0  0  0  0 12  0  0
   91.1460   28.5350   11.9150 C   0  0  0  0  0  0  0  0  0 11  0  0
   90.7120   29.8520   11.7970 C   0  0  0  0  0  0  0  0  0 10  0  0
   91.3260   30.8610   12.5350 C   0  0  0  0  0  0  0  0  0  9  0  0
   90.8500   32.3110   12.4030 C   0  0  2  0  0  0  0  0  0  8  0  0
   89.4740   32.3680   11.8830 N   0  0  0  0  0  0  0  0  0 15  0  0
   88.4160   31.8010   12.4570 C   0  0  0  0  0  0  0  0  0 16  0  0
   87.3630   32.1040   11.7000 C   0  0  0  0  0  0  0  0  0 17  0  0
   87.7710   32.8500   10.6750 N   0  0  0  0  0  0  0  0  0 18  0  0
   89.0860   33.0140   10.7860 C   0  0  0  0  0  0  0  0  0 19  0  0
   91.8010   33.1310   11.5240 C   0  0  0  0  0  0  0  0  0  7  0  0
   91.9120   34.5020   11.7330 C   0  0  0  0  0  0  0  0  0 20  0  0
   92.6940   35.2760   10.8790 C   0  0  0  0  0  0  0  0  0 21  0  0
   92.4860   32.5400   10.4660 C   0  0  0  0  0  0  0  0  0  6  0  0
   93.2680   33.3170    9.6150 C   0  0  0  0  0  0  0  0  0  5  0  0
   93.3720   34.6910    9.8130 C   0  0  0  0  0  0  0  0  0  4  0  0
   94.1500   35.4700    8.9600 C   0  0  0  0  0  0  0  0  0  3  0  0
   94.8670   36.5580    9.4540 C   0  0  0  0  0  0  0  0  0  2  0  0
   95.6820   37.3080    8.6120 C   0  0  0  0  0  0  0  0  0  1  0  0
   95.7850   36.9750    7.2650 C   0  0  0  0  0  0  0  0  0  0  0  0
   95.0690   35.8920    6.7620 C   0  0  0  0  0  0  0  0  0 23  0  0
   94.2550   35.1450    7.6090 C   0  0  0  0  0  0  0  0  0 22  0  0
  2  1  2  0
  3  2  1  0
  4  3  2  0
  5  4  1  0
  6  5  2  0
  6  1  1  0
  7  6  1  0
  7  8  1  6
  9  8  1  0
 10  9  2  0
 11 10  1  0
 12  8  1  0
 12 11  2  0
 13  7  1  0
 13 14  2  0
 15 14  1  0
 16 13  1  0
 17 16  2  0
 18 17  1  0
 18 15  2  0
 19 18  1  0
 20 19  2  0
 21 20  1  0
 22 21  2  0
 23 22  1  0
 24 23  2  0
 24 19  1  0
M  END
$$$$
