
     RDKit          3D

 36 40  0  0  0  0  0  0  0  0999 V2000
   16.8320  -40.1790   18.1760 C   0  0  2  0  0  0  0  0  0 26  0  0
   17.2370  -41.1310   19.3080 C   0  0  2  0  0  0  0  0  0  7  0  0
   17.9390  -39.8620   17.2110 C   0  0  0  0  0  0  0  0  0 25  0  0
   17.8410  -42.4360   18.7640 C   0  0  0  0  0  0  0  0  0  8  0  0
   18.4110  -44.2560   16.2090 C   0  0  0  0  0  0  0  0  0 11  0  0
   19.4660  -43.6780   16.5220 O   0  0  0  0  0  0  0  0  0 12  0  0
   17.1170  -43.9940   16.8860 C   0  0  0  0  0  0  0  0  0 10  0  0
   16.8410  -43.2250   17.9480 C   0  0  0  0  0  0  0  0  0  9  0  0
   19.9080  -44.2760   13.4490 C   0  0  0  0  0  0  0  0  0 15  0  0
   19.5280  -45.4210   14.3690 C   0  0  0  0  0  0  0  0  0 14  0  0
   18.3560  -45.1160   15.1900 N   0  0  0  0  0  0  0  0  0 13  0  0
   18.8780  -44.0510   12.3500 C   0  0  0  0  0  0  0  0  0 16  0  0
   19.0070  -40.1750   14.9320 C   0  0  0  0  0  0  0  0  0 22  0  0
   18.0350  -40.3600   15.9930 C   0  0  0  0  0  0  0  0  0 24  0  0
   20.1430  -40.8650   12.7490 C   0  0  0  0  0  0  0  0  0 19  0  0
   19.0140  -40.8910   13.7330 C   0  0  0  0  0  0  0  0  0 21  0  0
   19.8550  -41.8150   11.8630 N   0  0  0  0  0  0  0  0  0 18  0  0
   18.6360  -42.5660   12.0730 C   0  0  2  0  0  0  0  0  0 17  0  0
   18.0390  -41.8220   13.2660 C   0  0  0  0  0  0  0  0  0 34  0  0
   21.1250  -40.1550   12.6980 O   0  0  0  0  0  0  0  0  0 20  0  0
   16.9560  -42.0780   13.7360 O   0  0  0  0  0  0  0  0  0 35  0  0
   16.0090  -41.4260   20.1860 C   0  0  2  0  0  0  0  0  0  6  0  0
   15.4680  -40.0800   20.6950 C   0  0  1  0  0  0  0  0  0 30  0  0
   14.9780  -39.1600   19.5750 C   0  0  2  0  0  0  0  0  0 28  0  0
   16.0660  -38.9050   18.5360 C   0  0  0  0  0  0  0  0  0 27  0  0
   16.2780  -42.1820   21.4660 C   0  0  0  0  0  0  0  0  0  5  0  0
   15.0210  -41.9040   22.3050 C   0  0  2  0  0  0  0  0  0  4  0  0
   14.4460  -40.5910   21.7420 C   0  0  1  0  0  0  0  0  0 31  0  0
   15.3580  -41.6090   23.7760 C   0  0  0  0  0  0  0  0  0  3  0  0
   14.3210  -40.5530   24.1530 C   0  0  2  0  0  0  0  0  0  2  0  0
   14.3620  -39.6250   22.9350 C   0  0  2  0  0  0  0  0  0 32  0  0
   14.5960  -37.9100   20.1290 O   0  0  0  0  0  0  0  0  0 29  0  0
   13.1870  -38.6570   22.8510 C   0  0  0  0  0  0  0  0  0 33  0  0
   14.5570  -39.7320   25.4130 C   0  0  0  0  0  0  0  0  0  1  0  0
   19.9910  -39.3710   15.1910 O   0  0  0  0  0  0  0  0  0 23  0  0
   14.9200  -40.5350   26.5890 C   0  0  0  0  0  0  0  0  0  0  0  0
  2  1  1  0
  1  3  1  1
  2  4  1  6
  6  5  2  0
  7  5  1  0
  8  7  2  3
  4  8  1  6
  9 10  1  1
 10 11  1  6
 11  5  1  0
 12  9  1  0
 14 13  1  0
 14  3  2  3
 16 15  1  0
 16 13  2  3
 17 15  1  0
 12 18  1  1
 18 17  1  1
 19 18  1  0
 19 16  1  0
 20 15  2  0
 19 21  2  0
 22  2  1  0
 23 22  1  0
 23 24  1  6
 25 24  1  6
 25  1  1  0
 22 26  1  1
 27 26  1  6
 28 23  1  0
 28 27  1  0
 29 27  1  0
 29 30  1  6
 28 31  1  1
 31 30  1  0
 24 32  1  1
 31 33  1  6
 30 34  1  1
 13 35  1  0
 34 36  1  1
M  END
$$$$
