
     RDKit          3D

  9  9  0  0  0  0  0  0  0  0999 V2000
   24.6890  -14.0090  -46.8960 C   0  0  0  0  0  0  0  0  0  1  0  0
   23.4670  -13.7150  -47.5520 C   0  0  0  0  0  0  0  0  0  2  0  0
   22.2660  -13.7550  -46.7850 C   0  0  0  0  0  0  0  0  0  3  0  0
   22.2880  -14.0810  -45.3840 C   0  0  0  0  0  0  0  0  0  5  0  0
   23.5430  -14.3730  -44.7540 C   0  0  0  0  0  0  0  0  0  6  0  0
   24.7360  -14.3370  -45.5110 C   0  0  0  0  0  0  0  0  0  8  0  0
   26.1160  -13.9830  -47.7680 Cl  0  0  0  0  0  0  0  0  0  0  0  0
   20.7870  -13.4240  -47.5370 Cl  0  0  0  0  0  0  0  0  0  4  0  0
   23.6030  -14.7690  -43.0720 Cl  0  0  0  0  0  0  0  0  0  7  0  0
  2  1  2  0
  3  2  1  0
  4  3  2  0
  5  4  1  0
  6  5  2  0
  6  1  1  0
  7  1  1  0
  8  3  1  0
  9  5  1  0
M  END
$$$$
