
     RDKit          3D

 10 11  0  0  0  0  0  0  0  0999 V2000
   24.9240  -14.3430  -47.6170 C   0  0  0  0  0  0  0  0  0  2  0  0
   23.7770  -13.5960  -47.5720 C   0  0  0  0  0  0  0  0  0  1  0  0
   22.9040  -13.6870  -46.2360 C   0  0  1  0  0  0  0  0  0  6  0  0
   22.6850  -15.2980  -46.1660 C   0  0  0  0  0  0  0  0  0  5  0  0
   24.0550  -15.1120  -45.2830 C   0  0  1  0  0  0  0  0  0  4  0  0
   25.2190  -15.2290  -46.3820 C   0  0  0  0  0  0  0  0  0  3  0  0
   23.5450  -13.7530  -44.8050 C   0  0  2  0  0  0  0  0  0  7  0  0
   22.4810  -13.8030  -43.7730 C   0  0  0  0  0  0  0  0  0  8  0  0
   24.6460  -12.8170  -44.3440 C   0  0  0  0  0  0  0  0  0  9  0  0
   23.3200  -12.7360  -48.6330 C   0  0  0  0  0  0  0  0  0  0  0  0
  2  1  2  0
  3  2  1  0
  3  4  1  6
  5  4  1  6
  5  6  1  0
  6  1  1  0
  7  5  1  0
  7  3  1  0
  7  8  1  1
  9  7  1  0
 10  2  1  0
M  END
$$$$
