
     RDKit          3D

 12 13  0  0  0  0  0  0  0  0999 V2000
   14.5300   10.9590   39.3960 N   0  0  0  0  0  0  0  0  0 10  0  0
   14.8480   11.5340   40.5560 C   0  0  0  0  0  0  0  0  0 11  0  0
   15.9830   12.2950   40.7340 C   0  0  0  0  0  0  0  0  0  6  0  0
   16.8250   12.4490   39.6380 C   0  0  0  0  0  0  0  0  0  7  0  0
   16.5230   11.8390   38.4340 C   0  0  0  0  0  0  0  0  0  8  0  0
   15.3520   11.1050   38.3520 C   0  0  0  0  0  0  0  0  0  9  0  0
   17.6410   13.4010   42.2340 N   0  0  0  0  0  0  0  0  0  1  0  0
   16.2700   12.9520   42.0610 C   0  0  1  0  0  0  0  0  0  5  0  0
   15.4670   14.2580   42.2210 C   0  0  0  0  0  0  0  0  0  4  0  0
   16.2810   15.0920   43.2200 C   0  0  0  0  0  0  0  0  0  3  0  0
   17.6370   14.3510   43.3350 C   0  0  0  0  0  0  0  0  0  2  0  0
   18.6320   12.3520   42.3570 C   0  0  0  0  0  0  0  0  0  0  0  0
  2  1  2  0
  3  2  1  0
  4  3  2  0
  5  4  1  0
  6  1  1  0
  6  5  2  0
  8  3  1  6
  8  7  1  0
  9  8  1  0
 10  9  1  0
 11 10  1  0
 11  7  1  0
 12  7  1  0
M  END
$$$$
