
     RDKit          3D

 11 12  0  0  0  0  0  0  0  0999 V2000
   47.2330   45.6650   12.8660 N   0  0  0  0  0  0  0  0  0  4  0  0
   48.0130   45.4170   11.7920 C   0  0  0  0  0  0  0  0  0  8  0  0
   48.1640   46.4980   11.1500 N   0  0  0  0  0  0  0  0  0  7  0  0
   47.5470   47.4590   11.7450 C   0  0  0  0  0  0  0  0  0  6  0  0
   46.9260   46.9850   12.8650 C   0  0  0  0  0  0  0  0  0  5  0  0
   46.7880   44.6000   13.8360 C   0  0  0  0  0  0  0  0  0  3  0  0
   47.0370   44.7860   15.1840 C   0  0  0  0  0  0  0  0  0  2  0  0
   46.5810   43.7790   16.0850 C   0  0  0  0  0  0  0  0  0  1  0  0
   46.0500   42.6380   15.5120 C   0  0  0  0  0  0  0  0  0  0  0  0
   45.7090   42.4820   14.1820 C   0  0  0  0  0  0  0  0  0 10  0  0
   46.1260   43.5070   13.3300 C   0  0  0  0  0  0  0  0  0  9  0  0
  2  1  1  0
  3  2  2  0
  4  3  1  0
  5  4  2  0
  5  1  1  0
  6  1  1  0
  7  6  2  0
  8  7  1  0
  9  8  2  0
 10  9  1  0
 11 10  2  0
 11  6  1  0
M  END
$$$$
