
     RDKit          3D

 11 12  0  0  0  0  0  0  0  0999 V2000
   44.4420   45.1950   16.9730 N   0  0  0  0  0  0  0  0  0  5  0  0
   45.6850   44.8470   16.5830 C   0  0  0  0  0  0  0  0  0  4  0  0
   46.4920   45.1070   17.6720 N   0  0  0  0  0  0  0  0  0  8  0  0
   44.5470   45.5920   18.3230 C   0  0  0  0  0  0  0  0  0  6  0  0
   45.7790   45.5050   18.7070 C   0  0  0  0  0  0  0  0  0  7  0  0
   46.1820   44.3260   15.2560 C   0  0  0  0  0  0  0  0  0  3  0  0
   45.2950   44.0900   14.2120 C   0  0  0  0  0  0  0  0  0  2  0  0
   45.7340   43.6690   12.9460 C   0  0  0  0  0  0  0  0  0  1  0  0
   47.0730   43.3090   12.8060 C   0  0  0  0  0  0  0  0  0  0  0  0
   47.9610   43.4660   13.8580 C   0  0  0  0  0  0  0  0  0 10  0  0
   47.5010   43.9490   15.0700 C   0  0  0  0  0  0  0  0  0  9  0  0
  2  1  2  0
  3  2  1  0
  4  1  1  0
  5  4  2  0
  5  3  1  0
  6  2  1  0
  7  6  2  0
  8  7  1  0
  9  8  2  0
 10  9  1  0
 11 10  2  0
 11  6  1  0
M  END
$$$$
