
     RDKit          3D

 11 12  0  0  0  0  0  0  0  0999 V2000
   46.1050   44.2190   13.0320 C   0  0  2  0  0  0  0  0  0  6  0  0
   46.9940   45.4950   13.1100 C   0  0  0  0  0  0  0  0  0  8  0  0
   47.4380   45.6200   14.5900 C   0  0  0  0  0  0  0  0  0 10  0  0
   46.7470   44.3560   15.2050 C   0  0  1  0  0  0  0  0  0  3  0  0
   45.1940   44.6420   15.3060 C   0  0  0  0  0  0  0  0  0  4  0  0
   44.7530   44.5540   13.7950 C   0  0  0  0  0  0  0  0  0  5  0  0
   46.8470   43.2700   14.0720 C   0  0  2  0  0  0  0  0  0  1  0  0
   48.2680   42.8010   13.7100 C   0  0  0  0  0  0  0  0  0  0  0  0
   46.2170   41.8870   14.3350 C   0  0  0  0  0  0  0  0  0  2  0  0
   45.8040   43.6720   11.6660 C   0  0  0  0  0  0  0  0  0  7  0  0
   47.3290   46.2430   12.1970 S   0  0  0  0  0  0  0  0  0  9  0  0
  2  1  1  0
  3  2  1  0
  4  3  1  6
  5  4  1  0
  6  5  1  0
  6  1  1  0
  7  4  1  0
  7  1  1  0
  7  8  1  6
  9  7  1  0
  1 10  1  6
 11  2  2  0
M  END
$$$$
