
     RDKit          3D

 25 27  0  0  0  0  0  0  0  0999 V2000
    2.5570  -14.0750   -1.1140 C   0  0  0  0  0  0  0  0  0 11  0  0
    4.4960  -10.7870   -0.2490 C   0  0  0  0  0  0  0  0  0 22  0  0
    2.6340  -12.7070    0.9730 C   0  0  0  0  0  0  0  0  0 18  0  0
    1.6450  -15.0490   -0.5160 C   0  0  0  0  0  0  0  0  0 12  0  0
    0.9550  -16.3220   -0.9520 C   0  0  0  0  0  0  0  0  0 13  0  0
    0.1970  -16.7920    0.1410 C   0  0  0  0  0  0  0  0  0 14  0  0
    2.4770  -17.2850   -5.4750 C   0  0  0  0  0  0  0  0  0  7  0  0
    8.1500  -13.5350   -6.9000 C   0  0  0  0  0  0  0  0  0  0  0  0
    8.1080  -14.8180   -7.6510 C   0  0  0  0  0  0  0  0  0  1  0  0
    7.0640  -15.6670   -7.4480 C   0  0  0  0  0  0  0  0  0  3  0  0
    5.9020  -15.4100   -6.4610 C   0  0  0  0  0  0  0  0  0  4  0  0
    4.6360  -16.2640   -6.6380 C   0  0  0  0  0  0  0  0  0  5  0  0
    3.6600  -16.3080   -5.4530 C   0  0  0  0  0  0  0  0  0  6  0  0
    3.8710  -15.5080   -4.3610 C   0  0  0  0  0  0  0  0  0  8  0  0
    2.9450  -15.4740   -3.1190 C   0  0  0  0  0  0  0  0  0  9  0  0
    3.0440  -12.9120   -0.3830 C   0  0  0  0  0  0  0  0  0 24  0  0
    3.9860  -11.8810   -0.9780 C   0  0  0  0  0  0  0  0  0 23  0  0
    4.0620  -10.6280    1.1340 C   0  0  0  0  0  0  0  0  0 20  0  0
    1.7270  -13.6800    1.5850 C   0  0  0  0  0  0  0  0  0 17  0  0
    1.2510  -14.8320    0.8250 C   0  0  0  0  0  0  0  0  0 16  0  0
    9.2060  -15.1380   -8.6130 C   0  0  0  0  0  0  0  0  0  2  0  0
    2.9750  -14.2150   -2.4330 O   0  0  0  0  0  0  0  0  0 10  0  0
    4.4710   -9.7240    1.8860 O   0  0  0  0  0  0  0  0  0 21  0  0
    3.1280  -11.5530    1.6820 O   0  0  0  0  0  0  0  0  0 19  0  0
    0.3940  -15.8810    1.1830 O   0  0  0  0  0  0  0  0  0 15  0  0
  4  1  2  0
  5  4  1  0
  6  5  2  0
  8  9  1  1
 10  9  2  3
 11 10  1  1
 12 11  1  0
  7 13  1  1
 12 13  1  6
 14 13  2  3
 15 14  1  0
 16  3  2  0
 16  1  1  0
 17 16  1  0
 17  2  2  0
 18  2  1  0
 19  3  1  0
 20 19  2  0
 20  4  1  0
 21  9  1  1
 15 22  1  6
 22  1  1  0
 23 18  2  0
 24  3  1  0
 24 18  1  0
 25  6  1  0
 25 20  1  0
M  END
$$$$
