
     RDKit          3D

 27 31  0  0  0  0  0  0  0  0999 V2000
    5.0650  -15.6120   -6.4040 C   0  0  0  0  0  0  0  0  0  5  0  0
    6.9770  -14.3140   -7.6830 C   0  0  0  0  0  0  0  0  0  2  0  0
    9.0570  -14.4610   -8.4280 C   0  0  0  0  0  0  0  0  0  0  0  0
    2.2160  -13.5060   -0.6800 C   0  0  0  0  0  0  0  0  0 15  0  0
    2.4850  -12.3910    0.1020 C   0  0  0  0  0  0  0  0  0 23  0  0
    3.5410  -11.5680   -0.1250 C   0  0  0  0  0  0  0  0  0 19  0  0
    4.1240  -12.9390   -2.0060 C   0  0  0  0  0  0  0  0  0 17  0  0
    2.4990  -10.7280    1.6500 C   0  0  0  0  0  0  0  0  0 21  0  0
    0.9400  -15.1130    0.6160 C   0  0  0  0  0  0  0  0  0 13  0  0
    1.1430  -14.4930   -0.6610 C   0  0  2  0  0  0  0  0  0 12  0  0
    1.5150  -15.5490   -1.6160 C   0  0  0  0  0  0  0  0  0 11  0  0
    2.8290  -15.5470   -3.6640 C   0  0  0  0  0  0  0  0  0  8  0  0
    3.8260  -15.2150   -4.6370 C   0  0  0  0  0  0  0  0  0  7  0  0
    4.6830  -14.1660   -4.8200 C   0  0  0  0  0  0  0  0  0 24  0  0
    5.4480  -14.4290   -5.9380 C   0  0  0  0  0  0  0  0  0 25  0  0
    5.6380  -16.1950   -7.5120 C   0  0  0  0  0  0  0  0  0  4  0  0
    6.6350  -15.5070   -8.1340 C   0  0  0  0  0  0  0  0  0  3  0  0
    6.4350  -13.7600   -6.5810 C   0  0  0  0  0  0  0  0  0 26  0  0
    3.0500  -13.8190   -1.7790 C   0  0  0  0  0  0  0  0  0 16  0  0
    4.4070  -11.8170   -1.2070 C   0  0  0  0  0  0  0  0  0 18  0  0
    1.8150  -11.8760    1.2300 C   0  0  0  0  0  0  0  0  0 22  0  0
    2.5420  -14.9970   -2.4570 N   0  0  0  0  0  0  0  0  0 10  0  0
    4.1170  -16.0890   -5.6220 N   0  0  0  0  0  0  0  0  0  6  0  0
    3.5350  -10.5830    0.8060 N   0  0  0  0  0  0  0  0  0 20  0  0
    7.9380  -13.6790   -8.2900 O   0  0  0  0  0  0  0  0  0  1  0  0
    2.1730  -16.5480   -3.9280 O   0  0  0  0  0  0  0  0  0  9  0  0
   -0.1800  -16.3140    0.2290 Cl  0  0  0  0  0  0  0  0  0 14  0  0
  5  4  2  0
  6  5  1  0
 10  9  1  0
 10  4  1  1
 11 10  1  0
 13 12  1  0
 14 13  2  0
 15  1  1  0
 15 14  1  0
 16  1  2  0
 17 16  1  0
 17  2  2  0
 18 15  2  0
 18  2  1  0
 19  7  2  0
 19  4  1  0
 20  7  1  0
 20  6  2  0
 21  5  1  0
 21  8  2  0
 22 19  1  0
 22 12  1  0
 11 22  1  1
 23  1  1  0
 23 13  1  0
 24  6  1  0
 24  8  1  0
  3 25  1  1
  2 25  1  0
 12 26  2  0
  9 27  1  6
M  END
$$$$
