
     RDKit          3D

 28 31  0  0  0  0  0  0  0  0999 V2000
   12.9680   -9.4990   14.3130 C   0  0  0  0  0  0  0  0  0 20  0  0
   12.0640  -10.6930   13.9290 C   0  0  0  0  0  0  0  0  0 19  0  0
   11.3470  -11.2470   15.1660 C   0  0  1  0  0  0  0  0  0 17  0  0
   10.4300  -10.1580   15.7210 C   0  0  0  0  0  0  0  0  0 16  0  0
   11.2390   -8.9060   15.9780 C   0  0  0  0  0  0  0  0  0 15  0  0
   11.0940   -8.3390   17.1910 C   0  0  0  0  0  0  0  0  0 14  0  0
   11.9150   -7.1610   17.6640 C   0  0  0  0  0  0  0  0  0 13  0  0
   12.4320   -6.3320   16.4770 C   0  0  2  0  0  0  0  0  0 12  0  0
   13.1120   -7.2760   15.4780 C   0  0  1  0  0  0  0  0  0 23  0  0
   12.1490   -8.3410   14.8970 C   0  0  1  0  0  0  0  0  0 21  0  0
   13.8950   -6.5100   14.3810 C   0  0  0  0  0  0  0  0  0 24  0  0
   14.8730   -5.4860   14.9430 C   0  0  0  0  0  0  0  0  0 25  0  0
   14.1380   -4.4660   15.8310 C   0  0  1  0  0  0  0  0  0 26  0  0
   13.4570   -5.2680   16.9330 C   0  0  1  0  0  0  0  0  0 11  0  0
   13.0520   -4.2450   17.9890 C   0  0  0  0  0  0  0  0  0 10  0  0
   14.2330   -3.2820   17.9710 C   0  0  0  0  0  0  0  0  0  9  0  0
   15.0620   -3.6070   16.7050 C   0  0  2  0  0  0  0  0  0  8  0  0
   13.1680   -3.5590   15.0330 C   0  0  0  0  0  0  0  0  0 27  0  0
   11.2950   -7.7340   13.7850 C   0  0  0  0  0  0  0  0  0 22  0  0
   15.6950   -2.3250   16.1080 C   0  0  2  0  0  0  0  0  0  6  0  0
   16.5760   -2.5710   14.8670 C   0  0  0  0  0  0  0  0  0  7  0  0
   16.4970   -1.5460   17.1610 C   0  0  0  0  0  0  0  0  0  5  0  0
   17.6570   -2.3600   17.7500 C   0  0  0  0  0  0  0  0  0  4  0  0
   18.3240   -1.7110   18.9680 C   0  0  0  0  0  0  0  0  0  3  0  0
   19.2200   -2.6730   19.7520 C   0  0  2  0  0  0  0  0  0  1  0  0
   19.7100   -2.0240   21.0510 C   0  0  0  0  0  0  0  0  0  0  0  0
   20.4270   -3.1100   18.9160 C   0  0  0  0  0  0  0  0  0  2  0  0
   10.5640  -12.4210   14.8650 O   0  0  0  0  0  0  0  0  0 18  0  0
  2  1  1  0
  3  2  1  0
  4  3  1  0
  5  4  1  0
  6  5  2  0
  7  6  1  0
  8  7  1  1
  9  8  1  0
 10  9  1  0
 10  5  1  0
 10  1  1  0
  9 11  1  6
 12 11  1  0
 13 12  1  0
 14  8  1  0
 14 13  1  0
 14 15  1  1
 16 15  1  0
 17 13  1  0
 17 16  1  1
 13 18  1  6
 10 19  1  6
 20 17  1  0
 20 21  1  6
 22 20  1  0
 23 22  1  0
 24 23  1  0
 25 24  1  0
 25 26  1  1
 27 25  1  0
  3 28  1  6
M  END
$$$$
