
     RDKit          3D

 24 26  0  0  0  0  0  0  0  0999 V2000
    5.3340    6.9080    3.2020 O   0  0  0  0  0  0  0  0  0  0  0  0
    4.3290    6.9310    3.9240 C   0  0  0  0  0  0  0  0  0  1  0  0
    4.3680    7.6950    5.2400 C   0  0  2  0  0  0  0  0  0 15  0  0
    5.4780    7.1370    6.1690 C   0  0  0  0  0  0  0  0  0 16  0  0
    5.8510    8.1040    7.2650 C   0  0  0  0  0  0  0  0  0 17  0  0
    5.0250    8.2840    8.3700 C   0  0  0  0  0  0  0  0  0 18  0  0
    5.3370    9.2150    9.3510 C   0  0  0  0  0  0  0  0  0 19  0  0
    6.5090    9.9500    9.2630 C   0  0  0  0  0  0  0  0  0 20  0  0
    6.8140   10.8710   10.2240 O   0  0  0  0  0  0  0  0  0 21  0  0
    7.3410    9.7880    8.1660 C   0  0  0  0  0  0  0  0  0 22  0  0
    7.0140    8.8520    7.1920 C   0  0  0  0  0  0  0  0  0 23  0  0
    3.0790    7.7220    5.9240 N   0  0  0  0  0  0  0  0  0 14  0  0
    3.2090    6.3100    3.5910 N   0  0  0  0  0  0  0  0  0  2  0  0
    2.0390    6.0920    4.4350 C   0  0  2  0  0  0  0  0  0  3  0  0
    2.0010    7.0050    5.6450 C   0  0  0  0  0  0  0  0  0 12  0  0
    0.9680    7.0510    6.3300 O   0  0  0  0  0  0  0  0  0 13  0  0
    1.9500    4.6200    4.9090 C   0  0  0  0  0  0  0  0  0  4  0  0
    3.1450    4.1910    5.7200 C   0  0  0  0  0  0  0  0  0  5  0  0
    3.1330    4.2400    7.1120 C   0  0  0  0  0  0  0  0  0  6  0  0
    4.2400    3.8400    7.8450 C   0  0  0  0  0  0  0  0  0  7  0  0
    5.3930    3.4110    7.2120 C   0  0  0  0  0  0  0  0  0  8  0  0
    6.4990    3.0300    7.9270 O   0  0  0  0  0  0  0  0  0  9  0  0
    5.4190    3.3530    5.8260 C   0  0  0  0  0  0  0  0  0 10  0  0
    4.3050    3.7480    5.1030 C   0  0  0  0  0  0  0  0  0 11  0  0
  2  1  2  0
  3  2  1  0
  3  4  1  1
  5  4  1  0
  6  5  2  0
  7  6  1  0
  8  7  2  0
  9  8  1  0
 10  8  1  0
 11 10  2  0
 11  5  1  0
 12  3  1  0
 13  2  1  0
 14 13  1  0
 15 14  1  0
 15 12  1  0
 16 15  2  0
 14 17  1  1
 18 17  1  0
 19 18  2  0
 20 19  1  0
 21 20  2  0
 22 21  1  0
 23 21  1  0
 24 23  2  0
 24 18  1  0
M  END
$$$$
