
     RDKit          3D

  9 10  0  0  0  0  0  0  0  0999 V2000
    5.4520   -3.3310  -11.0360 C   0  0  0  0  0  0  0  0  0  3  0  0
    5.9060   -4.5770  -10.6100 C   0  0  0  0  0  0  0  0  0  7  0  0
    6.1420   -5.6010  -11.5340 C   0  0  0  0  0  0  0  0  0  8  0  0
    5.9150   -5.3640  -12.8930 C   0  0  0  0  0  0  0  0  0  0  0  0
    5.4470   -4.1150  -13.3140 C   0  0  0  0  0  0  0  0  0  1  0  0
    5.2370   -3.0870  -12.3900 C   0  0  0  0  0  0  0  0  0  2  0  0
    5.3450   -2.5800   -9.9150 N   0  0  0  0  0  0  0  0  0  4  0  0
    6.0930   -4.6290   -9.2010 C   0  0  0  0  0  0  0  0  0  6  0  0
    5.7280   -3.3730   -8.7940 N   0  0  0  0  0  0  0  0  0  5  0  0
  2  1  1  0
  3  2  2  0
  4  3  1  0
  5  4  2  0
  6  5  1  0
  6  1  2  0
  7  1  1  0
  8  2  1  0
  9  7  1  0
  9  8  2  0
M  END
$$$$
