
     RDKit          3D

 11 11  0  0  0  0  0  0  0  0999 V2000
   42.9530   76.9610   38.6820 O   0  0  0  0  0  0  0  0  0 10  0  0
   43.0530   78.3220   38.3950 C   0  0  0  0  0  0  0  0  0  9  0  0
   42.6600   79.2230   39.3550 C   0  0  0  0  0  0  0  0  0  2  0  0
   42.1840   78.6790   40.5500 O   0  0  0  0  0  0  0  0  0  1  0  0
   41.6010   79.5950   41.4510 C   0  0  0  0  0  0  0  0  0  0  0  0
   42.7460   80.6010   39.0910 C   0  0  0  0  0  0  0  0  0  3  0  0
   43.2680   81.0410   37.8620 C   0  0  0  0  0  0  0  0  0  4  0  0
   43.6740   80.1110   36.9020 C   0  0  0  0  0  0  0  0  0  5  0  0
   43.5600   78.7520   37.1840 C   0  0  0  0  0  0  0  0  0  6  0  0
   43.9420   77.7550   36.2990 O   0  0  0  0  0  0  0  0  0  7  0  0
   44.4430   78.1820   35.0470 C   0  0  0  0  0  0  0  0  0  8  0  0
  2  1  1  0
  3  2  2  0
  4  3  1  0
  5  4  1  0
  6  3  1  0
  7  6  2  0
  8  7  1  0
  9  2  1  0
  9  8  2  0
 10  9  1  0
 11 10  1  0
M  END
$$$$
