
     RDKit          3D

 37 40  0  0  0  0  0  0  0  0999 V2000
   74.7750   58.4920    9.3280 F   0  0  0  0  0  0  0  0  0 30  0  0
   74.4430   59.7560    9.5890 C   0  0  2  0  0  0  0  0  0 29  0  0
   75.4770   60.5470    9.3280 F   0  0  0  0  0  0  0  0  0 31  0  0
   74.1070   59.8670   10.8700 F   0  0  0  0  0  0  0  0  0 32  0  0
   73.2740   60.1440    8.7210 C   0  0  0  0  0  0  0  0  0 28  0  0
   72.7930   61.3260    9.3800 O   0  0  0  0  0  0  0  0  0 27  0  0
   72.4910   62.3110    8.4870 C   0  0  0  0  0  0  0  0  0 26  0  0
   72.5810   63.6550    8.8350 C   0  0  0  0  0  0  0  0  0 33  0  0
   72.2620   64.6460    7.9100 C   0  0  0  0  0  0  0  0  0 34  0  0
   72.0530   61.9670    7.2140 C   0  0  0  0  0  0  0  0  0 25  0  0
   71.7340   62.9570    6.2910 C   0  0  0  0  0  0  0  0  0 24  0  0
   71.8190   64.3010    6.6370 C   0  0  0  0  0  0  0  0  0 23  0  0
   71.5260   65.2660    5.6770 C   0  0  0  0  0  0  0  0  0 22  0  0
   70.6960   64.9480    4.6080 C   0  0  0  0  0  0  0  0  0 35  0  0
   70.4640   65.8790    3.5860 N   0  0  0  0  0  0  0  0  0 36  0  0
   72.1640   66.5010    5.6680 C   0  0  0  0  0  0  0  0  0 21  0  0
   71.9030   67.4100    4.6470 C   0  0  0  0  0  0  0  0  0 20  0  0
   70.9930   67.1110    3.6370 C   0  0  0  0  0  0  0  0  0 19  0  0
   70.8670   67.9650    2.5400 C   0  0  2  0  0  0  0  0  0 16  0  0
   71.0580   67.2650    1.4310 F   0  0  0  0  0  0  0  0  0 17  0  0
   71.7930   68.9140    2.6100 F   0  0  0  0  0  0  0  0  0 18  0  0
   69.4890   68.6350    2.4660 C   0  0  1  0  0  0  0  0  0  1  0  0
   68.4260   67.5680    2.3920 C   0  0  0  0  0  0  0  0  0  2  0  0
   67.1840   68.3420    2.1200 N   0  0  0  0  0  0  0  0  0  3  0  0
   66.4430   68.1620    1.2550 N   0  0  0  0  0  0  0  0  0  7  0  0
   65.4940   68.8850    1.3030 N   0  0  0  0  0  0  0  0  0  6  0  0
   65.5110   69.5770    2.2200 N   0  0  0  0  0  0  0  0  0  5  0  0
   66.6310   69.2860    2.8700 C   0  0  0  0  0  0  0  0  0  4  0  0
   69.2920   69.4270    3.6400 O   0  0  0  0  0  0  0  0  0  0  0  0
   69.4260   69.4610    1.3440 C   0  0  0  0  0  0  0  0  0  8  0  0
   69.3050   68.9320    0.0630 C   0  0  0  0  0  0  0  0  0 14  0  0
   69.2180   67.5880   -0.1220 F   0  0  0  0  0  0  0  0  0 15  0  0
   69.2680   69.7740   -1.0440 C   0  0  0  0  0  0  0  0  0 13  0  0
   69.3450   71.1510   -0.8780 C   0  0  0  0  0  0  0  0  0 11  0  0
   69.2990   71.9830   -1.9630 F   0  0  0  0  0  0  0  0  0 12  0  0
   69.4600   71.6840    0.4000 C   0  0  0  0  0  0  0  0  0 10  0  0
   69.5000   70.8400    1.5050 C   0  0  0  0  0  0  0  0  0  9  0  0
  2  1  1  6
  3  2  1  0
  4  2  1  0
  5  2  1  0
  6  5  1  0
  7  6  1  0
  8  7  2  0
  9  8  1  0
 10  7  1  0
 11 10  2  0
 12 11  1  0
 12  9  2  0
 13 12  1  0
 13 14  2  0
 15 14  1  0
 16 13  1  0
 17 16  2  0
 18 15  2  0
 18 17  1  0
 19 18  1  0
 19 20  1  6
 21 19  1  0
 22 19  1  0
 23 22  1  0
 24 23  1  0
 25 24  1  0
 26 25  2  0
 27 26  1  0
 28 27  2  0
 28 24  1  0
 22 29  1  1
 30 22  1  0
 31 30  2  0
 32 31  1  0
 33 31  1  0
 34 33  2  0
 35 34  1  0
 36 34  1  0
 37 30  1  0
 37 36  2  0
M  END
$$$$
