
     RDKit          3D

 49 55  0  0  0  0  0  0  0  0999 V2000
  -34.6830  -23.1080   30.3020 C   0  0  0  0  0  0  0  0  0  9  0  0
  -33.3760  -23.0360   30.7500 C   0  0  0  0  0  0  0  0  0  8  0  0
  -31.8780  -27.4470   28.1200 C   0  0  0  0  0  0  0  0  0  0  0  0
  -31.1800  -27.9740   29.3800 C   0  0  0  0  0  0  0  0  0  1  0  0
  -31.9650  -27.7510   30.7360 C   0  0  1  0  0  0  0  0  0  2  0  0
  -31.3160  -28.4450   31.9240 C   0  0  0  0  0  0  0  0  0  3  0  0
  -32.0650  -26.2970   31.0340 N   0  0  0  0  0  0  0  0  0  4  0  0
  -33.0920  -25.5070   30.6370 C   0  0  0  0  0  0  0  0  0 47  0  0
  -34.1400  -25.8260   30.0980 O   0  0  0  0  0  0  0  0  0 48  0  0
  -32.6390  -24.2470   30.9900 N   0  0  0  0  0  0  0  0  0  7  0  0
  -31.4100  -24.3280   31.6030 C   0  0  0  0  0  0  0  0  0  6  0  0
  -31.0370  -25.6210   31.6460 N   0  0  0  0  0  0  0  0  0  5  0  0
  -35.3230  -21.9760   29.8410 C   0  0  0  0  0  0  0  0  0 10  0  0
  -34.6620  -20.7590   29.8140 C   0  0  0  0  0  0  0  0  0 11  0  0
  -33.3560  -20.6840   30.2890 C   0  0  0  0  0  0  0  0  0 45  0  0
  -32.7200  -21.8170   30.7640 C   0  0  0  0  0  0  0  0  0 46  0  0
  -35.2710  -19.6740   29.2950 N   0  0  0  0  0  0  0  0  0 12  0  0
  -36.7330  -19.6550   29.3210 C   0  0  0  0  0  0  0  0  0 13  0  0
  -37.2360  -18.7440   28.2470 C   0  0  0  0  0  0  0  0  0 14  0  0
  -36.6450  -17.4120   28.3950 N   0  0  0  0  0  0  0  0  0 15  0  0
  -35.1830  -17.4030   28.4830 C   0  0  0  0  0  0  0  0  0 43  0  0
  -34.7070  -18.3500   29.5450 C   0  0  0  0  0  0  0  0  0 44  0  0
  -37.1920  -16.4410   27.6080 C   0  0  0  0  0  0  0  0  0 16  0  0
  -38.2200  -16.7460   26.7320 C   0  0  0  0  0  0  0  0  0 17  0  0
  -38.7830  -15.7660   25.9380 C   0  0  0  0  0  0  0  0  0 18  0  0
  -38.3230  -14.4680   26.0170 C   0  0  0  0  0  0  0  0  0 19  0  0
  -37.2980  -14.1480   26.8870 C   0  0  0  0  0  0  0  0  0 41  0  0
  -36.7330  -15.1330   27.6750 C   0  0  0  0  0  0  0  0  0 42  0  0
  -38.9440  -13.5840   25.1660 O   0  0  0  0  0  0  0  0  0 20  0  0
  -38.5610  -12.2040   25.1810 C   0  0  0  0  0  0  0  0  0 21  0  0
  -38.9910  -11.5780   23.8780 C   0  0  1  0  0  0  0  0  0 22  0  0
  -38.4880  -12.3490   22.6800 C   0  0  0  0  0  0  0  0  0 23  0  0
  -39.5310  -13.2400   22.4010 O   0  0  0  0  0  0  0  0  0 24  0  0
  -40.7350  -12.5360   22.6590 C   0  0  2  0  0  0  0  0  0 25  0  0
  -40.4290  -11.5900   23.6870 O   0  0  0  0  0  0  0  0  0 40  0  0
  -41.6970  -13.4940   23.3120 C   0  0  0  0  0  0  0  0  0 26  0  0
  -43.0100  -12.8640   23.2810 N   0  0  0  0  0  0  0  0  0 27  0  0
  -43.4020  -11.7150   23.8070 C   0  0  0  0  0  0  0  0  0 28  0  0
  -44.6870  -11.5370   23.6240 N   0  0  0  0  0  0  0  0  0 29  0  0
  -45.0390  -12.6380   22.9440 C   0  0  0  0  0  0  0  0  0 30  0  0
  -44.0650  -13.4820   22.7010 N   0  0  0  0  0  0  0  0  0 31  0  0
  -41.2300  -11.9910   21.2880 C   0  0  0  0  0  0  0  0  0 32  0  0
  -41.5420  -12.8410   20.2210 C   0  0  0  0  0  0  0  0  0 38  0  0
  -41.9640  -12.3580   19.0000 C   0  0  0  0  0  0  0  0  0 37  0  0
  -42.0340  -10.9990   18.8120 C   0  0  0  0  0  0  0  0  0 35  0  0
  -41.7540  -10.1180   19.8350 C   0  0  0  0  0  0  0  0  0 34  0  0
  -41.3570  -10.6210   21.0630 C   0  0  0  0  0  0  0  0  0 33  0  0
  -42.3660  -10.3950   17.2140 Cl  0  0  0  0  0  0  0  0  0 36  0  0
  -41.3190  -14.5560   20.3230 Cl  0  0  0  0  0  0  0  0  0 39  0  0
  2  1  2  0
  4  3  1  0
  5  4  1  0
  5  6  1  1
  7  5  1  0
  8  7  1  0
  9  8  2  0
 10  8  1  0
  2 10  1  0
 11 10  1  0
 12 11  2  0
 12  7  1  0
 13  1  1  0
 14 13  2  0
 15 14  1  0
 16  2  1  0
 16 15  2  0
 17 14  1  0
 18 17  1  0
 19 18  1  0
 20 19  1  0
 21 20  1  0
 22 21  1  0
 22 17  1  0
 23 20  1  0
 24 23  2  0
 25 24  1  0
 26 25  2  0
 27 26  1  0
 28 23  1  0
 28 27  2  0
 29 26  1  0
 30 29  1  0
 31 30  1  1
 32 31  1  0
 33 32  1  0
 34 33  1  0
 35 34  1  0
 35 31  1  0
 34 36  1  1
 37 36  1  0
 38 37  1  0
 39 38  2  0
 40 39  1  0
 41 40  2  0
 41 37  1  0
 42 34  1  0
 43 42  2  0
 44 43  1  0
 45 44  2  0
 46 45  1  0
 47 42  1  0
 47 46  2  0
 45 48  1  0
 43 49  1  0
M  END
$$$$
