
     RDKit          3D

 49 55  0  0  0  0  0  0  0  0999 V2000
    9.2550   13.3830   20.4740 C   0  0  0  0  0  0  0  0  0  9  0  0
    8.4110   12.3600   20.8860 C   0  0  0  0  0  0  0  0  0  8  0  0
    3.3130   13.3330   18.3960 C   0  0  0  0  0  0  0  0  0  0  0  0
    2.7820   13.6890   19.7760 C   0  0  0  0  0  0  0  0  0  1  0  0
    3.8800   14.3290   20.6480 C   0  0  1  0  0  0  0  0  0  2  0  0
    3.3730   14.6560   22.0460 C   0  0  0  0  0  0  0  0  0  3  0  0
    5.0300   13.3980   20.7610 N   0  0  0  0  0  0  0  0  0  4  0  0
    6.3350   13.7660   20.7310 C   0  0  0  0  0  0  0  0  0 47  0  0
    6.8060   14.8830   20.6090 O   0  0  0  0  0  0  0  0  0 48  0  0
    6.9820   12.5510   20.9220 N   0  0  0  0  0  0  0  0  0  7  0  0
    6.0500   11.5450   21.0510 C   0  0  0  0  0  0  0  0  0  6  0  0
    4.8140   12.0560   20.9490 N   0  0  0  0  0  0  0  0  0  5  0  0
   10.6200   13.1700   20.4000 C   0  0  0  0  0  0  0  0  0 10  0  0
   11.1640   11.9310   20.7370 C   0  0  0  0  0  0  0  0  0 11  0  0
   10.3130   10.9280   21.1890 C   0  0  0  0  0  0  0  0  0 45  0  0
    8.9490   11.1400   21.2640 C   0  0  0  0  0  0  0  0  0 46  0  0
   12.5100   11.6650   20.5290 N   0  0  0  0  0  0  0  0  0 12  0  0
   13.5400   12.6950   20.6490 C   0  0  0  0  0  0  0  0  0 13  0  0
   14.6460   12.4070   19.6490 C   0  0  0  0  0  0  0  0  0 14  0  0
   15.1830   11.0550   19.8370 N   0  0  0  0  0  0  0  0  0 15  0  0
   14.1640   10.0040   19.8920 C   0  0  0  0  0  0  0  0  0 43  0  0
   13.0700   10.3590   20.8760 C   0  0  0  0  0  0  0  0  0 44  0  0
   16.3670   10.7450   19.1810 C   0  0  0  0  0  0  0  0  0 16  0  0
   16.9890   11.6810   18.3670 C   0  0  0  0  0  0  0  0  0 17  0  0
   18.1860   11.3880   17.7440 C   0  0  0  0  0  0  0  0  0 18  0  0
   18.7790   10.1540   17.9310 C   0  0  0  0  0  0  0  0  0 19  0  0
   18.1760    9.2120   18.7440 C   0  0  0  0  0  0  0  0  0 41  0  0
   16.9710    9.5050   19.3570 C   0  0  0  0  0  0  0  0  0 42  0  0
   19.9460    9.9570   17.2390 O   0  0  0  0  0  0  0  0  0 20  0  0
   20.6260    8.7080   17.3800 C   0  0  0  0  0  0  0  0  0 21  0  0
   21.6430    8.6020   16.2780 C   0  0  1  0  0  0  0  0  0 22  0  0
   21.1470    9.1940   14.9940 C   0  0  0  0  0  0  0  0  0 23  0  0
   21.5030   10.5510   15.0940 O   0  0  0  0  0  0  0  0  0 24  0  0
   22.7380   10.6060   15.7910 C   0  0  2  0  0  0  0  0  0 25  0  0
   22.8260    9.3970   16.5520 O   0  0  0  0  0  0  0  0  0 40  0  0
   22.5850   11.8250   16.7460 C   0  0  0  0  0  0  0  0  0 26  0  0
   23.9140   12.2070   17.2270 N   0  0  0  0  0  0  0  0  0 27  0  0
   24.7930   11.4850   17.8960 C   0  0  0  0  0  0  0  0  0 28  0  0
   25.8710   12.1890   18.1490 N   0  0  0  0  0  0  0  0  0 29  0  0
   25.5820   13.3750   17.5870 C   0  0  0  0  0  0  0  0  0 30  0  0
   24.4040   13.4490   17.0090 N   0  0  0  0  0  0  0  0  0 31  0  0
   23.8660   10.7160   14.7750 C   0  0  0  0  0  0  0  0  0 32  0  0
   23.8970   11.7310   13.8150 C   0  0  0  0  0  0  0  0  0 38  0  0
   24.9150   11.8260   12.8890 C   0  0  0  0  0  0  0  0  0 37  0  0
   25.9210   10.8920   12.9170 C   0  0  0  0  0  0  0  0  0 35  0  0
   25.9390    9.8820   13.8510 C   0  0  0  0  0  0  0  0  0 34  0  0
   24.9120    9.8030   14.7720 C   0  0  0  0  0  0  0  0  0 33  0  0
   27.2010   11.0010   11.7450 Cl  0  0  0  0  0  0  0  0  0 36  0  0
   22.6570   12.9330   13.7330 Cl  0  0  0  0  0  0  0  0  0 39  0  0
  2  1  2  0
  4  3  1  0
  5  4  1  0
  5  6  1  1
  7  5  1  0
  8  7  1  0
  9  8  2  0
 10  8  1  0
 10  2  1  0
 11 10  1  0
 12  7  1  0
 12 11  2  0
 13  1  1  0
 14 13  2  0
 15 14  1  0
 16 15  2  0
 16  2  1  0
 14 17  1  0
 18 17  1  0
 19 18  1  0
 20 19  1  0
 21 20  1  0
 22 21  1  0
 22 17  1  0
 23 20  1  0
 24 23  2  0
 25 24  1  0
 26 25  2  0
 27 26  1  0
 28 27  2  0
 28 23  1  0
 29 26  1  0
 30 29  1  0
 31 30  1  1
 32 31  1  0
 33 32  1  0
 34 33  1  0
 35 31  1  0
 35 34  1  0
 34 36  1  1
 37 36  1  0
 38 37  1  0
 39 38  2  0
 40 39  1  0
 41 40  2  0
 41 37  1  0
 42 34  1  0
 43 42  2  0
 44 43  1  0
 45 44  2  0
 46 45  1  0
 47 46  2  0
 47 42  1  0
 48 45  1  0
 49 43  1  0
M  END
$$$$
