
     RDKit          3D

 36 39  0  0  0  0  0  0  0  0999 V2000
   23.8600    9.7140   15.0220 C   0  0  0  0  0  0  0  0  0 24  0  0
   24.8040    9.8040   14.0160 C   0  0  0  0  0  0  0  0  0 25  0  0
   24.7310   10.8620   13.1540 C   0  0  0  0  0  0  0  0  0 26  0  0
   23.7720   11.8400   13.2470 C   0  0  0  0  0  0  0  0  0 28  0  0
   22.8490   11.7040   14.2560 C   0  0  0  0  0  0  0  0  0 29  0  0
   20.4480   10.2350   15.7990 C   0  0  0  0  0  0  0  0  0 14  0  0
   18.6000   11.3340   16.9220 C   0  0  0  0  0  0  0  0  0 11  0  0
   24.9810   13.3330   17.6820 C   0  0  0  0  0  0  0  0  0 21  0  0
   17.3790   11.2080   17.7820 C   0  0  0  0  0  0  0  0  0 10  0  0
   17.0180    9.9530   18.4620 C   0  0  0  0  0  0  0  0  0 31  0  0
   14.9500   11.0120   19.1470 C   0  0  0  0  0  0  0  0  0 34  0  0
   15.3050   12.2130   18.5360 C   0  0  0  0  0  0  0  0  0  8  0  0
   16.5520   12.2710   17.8500 C   0  0  0  0  0  0  0  0  0  9  0  0
   12.9310   11.9880   20.0390 C   0  0  0  0  0  0  0  0  0  5  0  0
   13.2760   13.1930   19.4300 C   0  0  0  0  0  0  0  0  0  6  0  0
   24.1210   11.5340   18.2550 C   0  0  0  0  0  0  0  0  0 19  0  0
   14.4380   13.2980   18.6850 C   0  0  0  0  0  0  0  0  0  7  0  0
   13.7820   10.8840   19.8850 C   0  0  0  0  0  0  0  0  0 35  0  0
   11.1310   10.5840   21.0680 C   0  0  0  0  0  0  0  0  0  1  0  0
   10.4440    9.9830   19.8610 C   0  0  0  0  0  0  0  0  0  0  0  0
   11.0220   13.0810   21.2340 C   0  0  0  0  0  0  0  0  0  3  0  0
    9.9870   13.5730   20.2370 C   0  0  0  0  0  0  0  0  0  4  0  0
   21.8770   11.8580   17.1560 C   0  0  0  0  0  0  0  0  0 17  0  0
   21.8500   10.5550   16.3300 C   0  0  2  0  0  0  0  0  0 15  0  0
   22.8560   10.6600   15.1770 C   0  0  0  0  0  0  0  0  0 23  0  0
   25.6200   10.9270   12.1340 F   0  0  0  0  0  0  0  0  0 27  0  0
   21.8570   12.6280   14.3170 F   0  0  0  0  0  0  0  0  0 30  0  0
   19.4060   10.2770   16.8130 N   0  0  0  0  0  0  0  0  0 13  0  0
   25.2490   12.1930   18.3610 N   0  0  0  0  0  0  0  0  0 20  0  0
   11.7470   11.8860   20.7670 N   0  0  0  0  0  0  0  0  0  2  0  0
   23.2270   12.2260   17.5500 N   0  0  0  0  0  0  0  0  0 18  0  0
   23.7710   13.4120   17.1760 N   0  0  0  0  0  0  0  0  0 22  0  0
   18.8250   12.3800   16.3200 O   0  0  0  0  0  0  0  0  0 12  0  0
   17.7080    8.9720   18.5950 O   0  0  0  0  0  0  0  0  0 32  0  0
   15.7920    9.9160   19.0940 O   0  0  0  0  0  0  0  0  0 33  0  0
   22.2010    9.4880   17.2170 O   0  0  0  0  0  0  0  0  0 16  0  0
  2  1  2  0
  3  2  1  0
  4  3  2  0
  5  4  1  0
  9  7  1  0
 10  9  1  0
 12 11  2  0
 13 12  1  0
 13  9  2  0
 15 14  1  0
 17 15  2  0
 17 12  1  0
 18 14  2  0
 11 18  1  0
 20 19  1  0
 22 21  1  0
 24  6  1  0
 24 23  1  0
 25 24  1  0
 25  1  1  0
 25  5  2  0
 26  3  1  0
 27  5  1  0
 28  6  1  0
 28  7  1  0
 29 16  2  0
 29  8  1  0
 30 19  1  0
 30 21  1  0
 30 14  1  0
 31 23  1  0
 31 16  1  0
 32 31  1  0
 32  8  2  0
 33  7  2  0
 10 34  2  0
 35 11  1  0
 35 10  1  0
 24 36  1  1
M  END
$$$$
