
     RDKit          3D

 41 45  0  0  0  0  0  0  0  0999 V2000
   52.8340    8.6830  -29.2800 C   0  0  0  0  0  0  0  0  0 30  0  0
   52.8520    7.8490  -30.4320 C   0  0  0  0  0  0  0  0  0 31  0  0
   51.6270    7.4220  -31.0230 C   0  0  0  0  0  0  0  0  0 32  0  0
   51.6040    6.5890  -32.1750 C   0  0  0  0  0  0  0  0  0 33  0  0
   50.3480    6.1830  -32.7310 C   0  0  0  0  0  0  0  0  0 34  0  0
   49.1250    6.6040  -32.1400 C   0  0  0  0  0  0  0  0  0 35  0  0
   47.6200    6.1200  -32.8120 Cl  0  0  0  0  0  0  0  0  0 36  0  0
   49.1430    7.4370  -30.9900 C   0  0  0  0  0  0  0  0  0 37  0  0
   50.3880    7.8520  -30.4260 C   0  0  0  0  0  0  0  0  0 38  0  0
   50.4130    8.6550  -29.3220 N   0  0  0  0  0  0  0  0  0 39  0  0
   51.5720    9.0820  -28.7350 C   0  0  0  0  0  0  0  0  0 29  0  0
   51.4500    9.9040  -27.6120 C   0  0  0  0  0  0  0  0  0 28  0  0
   52.5470   10.3990  -26.8910 C   0  0  0  0  0  0  0  0  0 27  0  0
   52.4630   11.2490  -25.7820 C   0  0  0  0  0  0  0  0  0 26  0  0
   51.2330   11.7350  -25.2730 C   0  0  0  0  0  0  0  0  0 40  0  0
   53.6720   11.6370  -25.1530 C   0  0  0  0  0  0  0  0  0 25  0  0
   53.6560   12.4920  -24.0260 C   0  0  0  0  0  0  0  0  0 24  0  0
   52.4300   12.9800  -23.5190 C   0  0  0  0  0  0  0  0  0 23  0  0
   51.2230   12.6080  -24.1490 C   0  0  0  0  0  0  0  0  0 22  0  0
   49.9400   13.2760  -23.6730 C   0  0  2  0  0  0  0  0  0 12  0  0
   48.6890   12.0520  -23.2360 S   0  0  0  0  0  0  0  0  0 13  0  0
   49.0920   12.0940  -21.4620 C   0  0  0  0  0  0  0  0  0 14  0  0
   48.2540   11.1750  -20.5800 C   0  0  1  0  0  0  0  0  0 15  0  0
   46.7430   11.3500  -20.8360 C   0  0  0  0  0  0  0  0  0 20  0  0
   47.4510    9.9730  -20.9600 C   0  0  0  0  0  0  0  0  0 21  0  0
   48.6880   11.2680  -19.1150 C   0  0  0  0  0  0  0  0  0 16  0  0
   50.1100   10.7250  -18.9380 C   0  0  0  0  0  0  0  0  0 17  0  0
   50.9590   11.3950  -18.3260 O   0  0  0  0  0  0  0  0  0 18  0  0
   50.4130    9.6240  -19.4180 O   0  0  0  0  0  0  0  0  0 19  0  0
   49.4540   14.1620  -24.7960 C   0  0  0  0  0  0  0  0  0 11  0  0
   48.7760   15.4280  -24.3210 C   0  0  0  0  0  0  0  0  0 10  0  0
   49.0360   16.5040  -25.3860 C   0  0  0  0  0  0  0  0  0  9  0  0
   50.2150   17.2520  -25.1380 C   0  0  0  0  0  0  0  0  0  8  0  0
   50.6300   18.2800  -25.9900 C   0  0  0  0  0  0  0  0  0  7  0  0
   49.8630   18.5930  -27.1270 C   0  0  0  0  0  0  0  0  0  6  0  0
   48.6800   17.8670  -27.4090 C   0  0  0  0  0  0  0  0  0  5  0  0
   48.2240   16.8100  -26.5680 C   0  0  0  0  0  0  0  0  0  4  0  0
   46.8680   16.0680  -27.0020 C   0  0  1  0  0  0  0  0  0  1  0  0
   47.0420   14.5640  -27.2970 C   0  0  0  0  0  0  0  0  0  0  0  0
   45.8100   16.2490  -25.9120 C   0  0  0  0  0  0  0  0  0  2  0  0
   46.3540   16.6480  -28.2090 O   0  0  0  0  0  0  0  0  0  3  0  0
  2  1  2  0
  3  2  1  0
  4  3  2  0
  5  4  1  0
  6  5  2  0
  7  6  1  0
  8  6  1  0
  9  8  2  0
  9  3  1  0
 10  9  1  0
 11 10  2  0
 11  1  1  0
 12 11  1  0
 13 12  2  3
 14 13  1  0
 15 14  2  0
 16 14  1  0
 17 16  2  0
 18 17  1  0
 19 18  2  0
 19 15  1  0
 20 19  1  0
 21 20  1  0
 22 21  1  0
 23 22  1  6
 24 23  1  0
 25 24  1  0
 25 23  1  0
 26 23  1  0
 27 26  1  0
 28 27  2  0
 29 27  1  0
 20 30  1  6
 31 30  1  0
 32 31  1  0
 33 32  2  0
 34 33  1  0
 35 34  2  0
 36 35  1  0
 37 36  2  0
 37 32  1  0
 38 37  1  0
 38 39  1  6
 40 38  1  0
 41 38  1  0
M  END
$$$$
