
     RDKit          3D

 25 27  0  0  0  0  0  0  0  0999 V2000
    7.3060   -1.1550   14.0860 C   0  0  0  0  0  0  0  0  0 24  0  0
    8.4110   -0.2570   14.1080 O   0  0  0  0  0  0  0  0  0 23  0  0
    9.6300   -0.7050   14.5550 C   0  0  0  0  0  0  0  0  0 22  0  0
   10.3300   -1.5370   13.6590 C   0  0  0  0  0  0  0  0  0  2  0  0
    9.6860   -1.8160   12.4930 O   0  0  0  0  0  0  0  0  0  1  0  0
   10.4970   -1.9490   11.3280 C   0  0  0  0  0  0  0  0  0  0  0  0
   11.5820   -2.0200   13.9890 C   0  0  0  0  0  0  0  0  0  3  0  0
   12.1420   -1.6670   15.2050 C   0  0  0  0  0  0  0  0  0  4  0  0
   10.2200   -0.3500   15.7630 C   0  0  0  0  0  0  0  0  0 21  0  0
   11.4900   -0.8280   16.0930 C   0  0  0  0  0  0  0  0  0  5  0  0
   12.1600   -0.4670   17.4030 C   0  0  0  0  0  0  0  0  0  6  0  0
   12.4590   -1.7470   18.1340 C   0  0  0  0  0  0  0  0  0  7  0  0
   13.4140   -2.5130   17.5870 N   0  0  0  0  0  0  0  0  0  8  0  0
   13.6930   -3.7080   18.1780 C   0  0  0  0  0  0  0  0  0  9  0  0
   13.0880   -4.1680   19.3040 C   0  0  0  0  0  0  0  0  0 10  0  0
   12.0900   -3.3910   19.9300 C   0  0  0  0  0  0  0  0  0 11  0  0
   11.7580   -2.1480   19.3290 C   0  0  0  0  0  0  0  0  0 20  0  0
   10.7550   -1.3430   19.9400 C   0  0  0  0  0  0  0  0  0 19  0  0
   10.1240   -1.7530   21.0860 C   0  0  0  0  0  0  0  0  0 16  0  0
    9.1550   -1.0570   21.7540 O   0  0  0  0  0  0  0  0  0 17  0  0
    8.5590    0.0710   21.1160 C   0  0  0  0  0  0  0  0  0 18  0  0
   10.4750   -3.0060   21.6990 C   0  0  0  0  0  0  0  0  0 13  0  0
   11.4270   -3.7970   21.1200 C   0  0  0  0  0  0  0  0  0 12  0  0
    9.7630   -3.2960   22.8320 O   0  0  0  0  0  0  0  0  0 14  0  0
   10.2490   -4.3280   23.6910 C   0  0  0  0  0  0  0  0  0 15  0  0
  2  1  1  0
  3  2  1  0
  4  3  2  0
  5  4  1  0
  6  5  1  0
  7  4  1  0
  8  7  2  0
  9  3  1  0
 10  9  2  0
 10  8  1  0
 11 10  1  0
 12 11  1  0
 13 12  2  0
 14 13  1  0
 15 14  2  0
 16 15  1  0
 17 16  2  0
 17 12  1  0
 18 17  1  0
 19 18  2  0
 20 19  1  0
 21 20  1  0
 22 19  1  0
 23 22  2  0
 23 16  1  0
 24 22  1  0
 25 24  1  0
M  END
$$$$
