
     RDKit          3D

 25 27  0  0  0  0  0  0  0  0999 V2000
   -5.7150   24.8660    4.9200 C   0  0  0  0  0  0  0  0  0  0  0  0
   -5.4570   26.3690    4.8690 C   0  0  1  0  0  0  0  0  0  1  0  0
   -5.8340   26.9340    3.4840 C   0  0  0  0  0  0  0  0  0 19  0  0
   -5.6080   28.4330    3.3880 C   0  0  0  0  0  0  0  0  0 20  0  0
   -6.5610   29.3650    4.5920 S   0  0  0  0  0  0  0  0  0 21  0  0
   -6.7080   28.1850    5.8800 C   0  0  0  0  0  0  0  0  0 22  0  0
   -6.2390   27.0120    5.9390 N   0  0  0  0  0  0  0  0  0 24  0  0
   -7.4040   28.6630    6.9170 N   0  0  0  0  0  0  0  0  0 23  0  0
   -3.9840   26.6720    5.1350 C   0  0  0  0  0  0  0  0  0  2  0  0
   -3.6340   27.5060    6.1920 C   0  0  0  0  0  0  0  0  0  3  0  0
   -2.3120   27.8010    6.5090 C   0  0  0  0  0  0  0  0  0  4  0  0
   -1.3340   27.2080    5.7360 C   0  0  0  0  0  0  0  0  0 14  0  0
   -1.6100   26.3840    4.6790 C   0  0  0  0  0  0  0  0  0 16  0  0
   -2.9300   26.1440    4.3960 C   0  0  0  0  0  0  0  0  0 17  0  0
   -3.2200   25.3780    3.3220 F   0  0  0  0  0  0  0  0  0 18  0  0
   -0.0440   27.4560    6.0520 F   0  0  0  0  0  0  0  0  0 15  0  0
   -1.9680   28.7670    7.6170 C   0  0  0  0  0  0  0  0  0  5  0  0
   -2.0290   30.1940    7.2800 N   0  0  0  0  0  0  0  0  0  6  0  0
   -2.2250   31.1420    8.4100 C   0  0  2  0  0  0  0  0  0  7  0  0
   -1.4230   32.3960    8.5150 C   0  0  0  0  0  0  0  0  0 12  0  0
   -1.2410   31.2940    9.5210 C   0  0  0  0  0  0  0  0  0 13  0  0
   -3.7080   31.2320    8.6870 C   0  0  1  0  0  0  0  0  0  8  0  0
   -4.0270   32.3510    9.3310 F   0  0  0  0  0  0  0  0  0  9  0  0
   -4.4250   31.2160    7.5680 F   0  0  0  0  0  0  0  0  0 10  0  0
   -4.1380   30.2220    9.4350 F   0  0  0  0  0  0  0  0  0 11  0  0
  2  1  1  6
  3  2  1  0
  4  3  1  0
  5  4  1  0
  6  5  1  0
  7  2  1  0
  7  6  2  0
  8  6  1  0
  9  2  1  0
 10  9  2  0
 11 10  1  0
 12 11  2  0
 13 12  1  0
 14 13  2  0
 14  9  1  0
 15 14  1  0
 16 12  1  0
 17 11  1  0
 18 17  1  0
 19 18  1  6
 20 19  1  0
 21 20  1  0
 21 19  1  0
 22 19  1  0
 22 23  1  1
 24 22  1  0
 25 22  1  0
M  END
$$$$
