
     RDKit          3D

 13 14  0  0  0  0  0  0  0  0999 V2000
   56.4930   76.2930   60.8580 C   0  0  0  0  0  0  0  0  0  7  0  0
   57.7780   76.1240   61.4300 C   0  0  0  0  0  0  0  0  0  8  0  0
   58.5890   77.2810   61.6180 C   0  0  0  0  0  0  0  0  0  9  0  0
   58.1820   78.5470   61.2740 N   0  0  0  0  0  0  0  0  0 10  0  0
   56.9430   78.7050   60.7250 C   0  0  0  0  0  0  0  0  0 11  0  0
   56.0440   77.6050   60.4890 C   0  0  0  0  0  0  0  0  0  6  0  0
   54.7410   77.8060   59.9030 C   0  0  0  0  0  0  0  0  0  5  0  0
   53.7010   76.9490   59.5660 C   0  0  0  0  0  0  0  0  0  4  0  0
   52.6480   77.7600   59.0120 C   0  0  0  0  0  0  0  0  0  3  0  0
   53.0990   79.0620   59.0400 C   0  0  0  0  0  0  0  0  0  2  0  0
   54.3850   79.1190   59.5820 O   0  0  0  0  0  0  0  0  0 12  0  0
   52.5170   80.3640   58.6300 C   0  0  0  0  0  0  0  0  0  1  0  0
   53.2450   81.1330   57.6470 N   0  0  0  0  0  0  0  0  0  0  0  0
  2  1  2  0
  3  2  1  0
  4  3  2  0
  5  4  1  0
  6  1  1  0
  6  5  2  0
  7  6  1  0
  8  7  2  0
  9  8  1  0
 10  9  2  0
 11 10  1  0
 11  7  1  0
 12 10  1  0
 13 12  1  0
M  END
$$$$
