
     RDKit          3D

 13 13  0  0  0  0  0  0  0  0999 V2000
  -25.5610   -1.2640   -9.0960 O   0  0  0  0  0  0  0  0  0 10  0  0
  -25.3390   -2.4580   -8.9930 C   0  0  0  0  0  0  0  0  0  8  0  0
  -26.4120   -3.4820   -9.2250 C   0  0  0  0  0  0  0  0  0  9  0  0
  -24.1510   -2.9700   -8.6670 N   0  0  0  0  0  0  0  0  0  7  0  0
  -23.0150   -2.2710   -8.4010 C   0  0  0  0  0  0  0  0  0  6  0  0
  -21.8860   -3.0150   -8.0710 C   0  0  0  0  0  0  0  0  0  5  0  0
  -20.6930   -2.3670   -7.7800 C   0  0  0  0  0  0  0  0  0  4  0  0
  -20.6130   -0.9770   -7.8260 C   0  0  0  0  0  0  0  0  0  3  0  0
  -21.7440   -0.2240   -8.1550 C   0  0  0  0  0  0  0  0  0 12  0  0
  -22.9460   -0.8740   -8.4410 C   0  0  0  0  0  0  0  0  0 11  0  0
  -19.4140   -0.3760   -7.5320 O   0  0  0  0  0  0  0  0  0  2  0  0
  -18.8210    0.5270   -8.4580 C   0  0  0  0  0  0  0  0  0  1  0  0
  -17.8170   -0.1990   -9.3220 C   0  0  0  0  0  0  0  0  0  0  0  0
  2  1  2  0
  3  2  1  0
  4  2  1  0
  5  4  1  0
  6  5  2  0
  7  6  1  0
  8  7  2  0
  9  8  1  0
 10  5  1  0
 10  9  2  0
 11  8  1  0
 12 11  1  0
 13 12  1  0
M  END
$$$$
