
     RDKit          3D

 12 13  0  0  0  0  0  0  0  0999 V2000
  -16.0840  -12.1770   -6.3300 N   0  0  0  0  0  0  0  0  0 10  0  0
  -15.0520  -13.0080   -6.1430 C   0  0  0  0  0  0  0  0  0 11  0  0
  -14.2050  -13.2740   -7.2140 C   0  0  0  0  0  0  0  0  0  6  0  0
  -14.3920  -12.6870   -8.4680 C   0  0  0  0  0  0  0  0  0  7  0  0
  -15.4660  -11.8310   -8.6140 C   0  0  0  0  0  0  0  0  0  8  0  0
  -16.3020  -11.5860   -7.5190 C   0  0  0  0  0  0  0  0  0  9  0  0
  -12.7560  -15.0800   -8.0280 N   0  0  0  0  0  0  0  0  0  1  0  0
  -13.1350  -14.2350   -6.9380 C   0  0  1  0  0  0  0  0  0  5  0  0
  -11.7620  -13.7040   -6.6520 C   0  0  0  0  0  0  0  0  0  4  0  0
  -10.9540  -14.9910   -6.6530 C   0  0  0  0  0  0  0  0  0  3  0  0
  -11.6360  -15.9260   -7.6160 C   0  0  0  0  0  0  0  0  0  2  0  0
  -13.3300  -15.1000   -9.3450 C   0  0  0  0  0  0  0  0  0  0  0  0
  2  1  2  0
  3  2  1  0
  4  3  2  0
  5  4  1  0
  6  5  2  0
  6  1  1  0
  8  7  1  0
  8  3  1  6
  9  8  1  0
 10  9  1  0
 11 10  1  0
 11  7  1  0
 12  7  1  0
M  END
$$$$
