
     RDKit          3D

 10 11  0  0  0  0  0  0  0  0999 V2000
  -93.9880   63.4460  -85.4910 C   0  0  0  0  0  0  0  0  0  0  0  0
  -95.0490   63.0930  -84.7900 C   0  0  0  0  0  0  0  0  0  1  0  0
  -95.9100   64.0880  -84.0790 C   0  0  2  0  0  0  0  0  0  9  0  0
  -95.8290   63.8660  -82.5680 C   0  0  0  0  0  0  0  0  0  8  0  0
  -95.4830   61.6560  -84.6470 C   0  0  0  0  0  0  0  0  0  2  0  0
  -96.7180   61.7300  -83.7530 C   0  0  0  0  0  0  0  0  0  3  0  0
  -96.9290   63.1980  -83.3810 C   0  0  2  0  0  0  0  0  0  4  0  0
  -98.3370   63.7730  -83.2800 C   0  0  2  0  0  0  0  0  0  5  0  0
  -98.4210   65.1350  -83.9580 C   0  0  0  0  0  0  0  0  0  6  0  0
  -98.7890   63.8570  -81.8270 C   0  0  0  0  0  0  0  0  0  7  0  0
  2  1  2  0
  3  2  1  0
  3  4  1  1
  5  2  1  0
  6  5  1  0
  7  6  1  6
  7  4  1  0
  7  3  1  0
  8  7  1  0
  8  9  1  1
 10  8  1  0
M  END
$$$$
