
     RDKit          3D

 23 25  0  0  0  0  0  0  0  0999 V2000
  -16.6230   88.6980   38.2170 C   0  0  0  0  0  0  0  0  0  0  0  0
  -17.0280   88.9950   39.6520 C   0  0  0  0  0  0  0  0  0  1  0  0
  -16.5570   89.9730   40.1880 O   0  0  0  0  0  0  0  0  0  2  0  0
  -18.0030   88.1000   40.4680 C   0  0  0  0  0  0  0  0  0  3  0  0
  -18.8780   87.0900   39.5960 C   0  0  1  0  0  0  0  0  0  4  0  0
  -19.5420   85.9190   40.3810 C   0  0  0  0  0  0  0  0  0  5  0  0
  -19.9390   86.0580   41.7690 C   0  0  0  0  0  0  0  0  0  6  0  0
  -20.5710   84.9490   42.4480 C   0  0  0  0  0  0  0  0  0  7  0  0
  -20.8100   83.7010   41.7540 C   0  0  0  0  0  0  0  0  0  8  0  0
  -20.4200   83.5490   40.3830 C   0  0  0  0  0  0  0  0  0  9  0  0
  -19.7920   84.6370   39.6920 C   0  0  0  0  0  0  0  0  0 10  0  0
  -20.1400   87.6770   38.8680 C   0  0  0  0  0  0  0  0  0 11  0  0
  -20.3900   87.2360   37.5520 C   0  0  0  0  0  0  0  0  0 12  0  0
  -19.5280   86.3220   36.9560 O   0  0  0  0  0  0  0  0  0 13  0  0
  -21.5880   87.7380   36.8240 C   0  0  0  0  0  0  0  0  0 14  0  0
  -21.8660   87.2940   35.5070 C   0  0  0  0  0  0  0  0  0 15  0  0
  -23.0170   87.7840   34.8650 C   0  0  0  0  0  0  0  0  0 16  0  0
  -23.9140   88.7230   35.4930 C   0  0  0  0  0  0  0  0  0 17  0  0
  -23.6540   89.1880   36.8090 C   0  0  0  0  0  0  0  0  0 18  0  0
  -22.4880   88.7080   37.5000 C   0  0  0  0  0  0  0  0  0 19  0  0
  -22.1830   89.1260   38.7920 O   0  0  0  0  0  0  0  0  0 20  0  0
  -21.0690   88.6400   39.4670 C   0  0  0  0  0  0  0  0  0 21  0  0
  -20.8820   89.0290   40.5750 O   0  0  0  0  0  0  0  0  0 22  0  0
  2  1  1  0
  3  2  2  0
  4  2  1  0
  5  4  1  1
  6  5  1  0
  7  6  2  0
  8  7  1  0
  9  8  2  0
 10  9  1  0
 11 10  2  0
 11  6  1  0
 12  5  1  0
 13 12  2  0
 14 13  1  0
 15 13  1  0
 16 15  2  0
 17 16  1  0
 18 17  2  0
 19 18  1  0
 20 19  2  0
 20 15  1  0
 21 20  1  0
 22 21  1  0
 22 12  1  0
 23 22  2  0
M  END
$$$$
