
     RDKit          3D

 22 23  0  0  0  0  0  0  0  0999 V2000
    1.1650    7.2550   15.6670 N   0  0  0  0  0  0  0  0  0  1  0  0
    2.2520    8.2210   15.7530 C   0  0  2  0  0  0  0  0  0  2  0  0
    1.7200    9.5170   16.3570 C   0  0  0  0  0  0  0  0  0  3  0  0
    0.6980   10.0340   15.9000 O   0  0  0  0  0  0  0  0  0  4  0  0
    2.8670    8.5140   14.3500 C   0  0  2  0  0  0  0  0  0 19  0  0
    3.6480    7.3130   13.8260 C   0  0  0  0  0  0  0  0  0 20  0  0
    3.8230    9.7260   14.3540 C   0  0  0  0  0  0  0  0  0 21  0  0
   -0.5280    8.7890   18.5420 C   0  0  0  0  0  0  0  0  0 17  0  0
   -1.1430    7.5540   18.4260 C   0  0  0  0  0  0  0  0  0 16  0  0
   -1.0860    6.6890   19.5050 C   0  0  0  0  0  0  0  0  0 15  0  0
   -0.4190    7.0910   20.6480 C   0  0  0  0  0  0  0  0  0 14  0  0
    0.1510    8.2840   20.7030 C   0  0  0  0  0  0  0  0  0 13  0  0
    0.1080    9.1390   19.6630 C   0  0  0  0  0  0  0  0  0 18  0  0
    1.3020   10.3890   21.1480 C   0  0  0  0  0  0  0  0  0 11  0  0
    0.7550   10.2900   19.9280 C   0  0  0  0  0  0  0  0  0 10  0  0
    0.8410   11.4110   18.8700 C   0  0  0  0  0  0  0  0  0  9  0  0
    2.1130   11.3630   17.9550 C   0  0  1  0  0  0  0  0  0  6  0  0
    3.3730   11.9140   18.6480 C   0  0  0  0  0  0  0  0  0  7  0  0
    1.4720    6.0210   16.3790 C   0  0  0  0  0  0  0  0  0  0  0  0
    2.4430   10.0440   17.3640 N   0  0  0  0  0  0  0  0  0  5  0  0
    4.3640   10.8860   18.7310 O   0  0  0  0  0  0  0  0  0  8  0  0
    0.9640    8.9710   21.8780 S   0  0  0  0  0  0  0  0  0 12  0  0
  2  1  1  6
  3  2  1  0
  4  3  2  0
  5  2  1  0
  5  6  1  1
  7  5  1  0
  9  8  2  0
 10  9  1  0
 11 10  2  0
 12 11  1  0
 13 12  2  0
 13  8  1  0
 15 14  2  0
 15 13  1  0
 16 15  1  0
 17 16  1  1
 18 17  1  0
 19  1  1  0
 20  3  1  0
 20 17  1  0
 21 18  1  0
 22 14  1  0
 22 12  1  0
M  END
$$$$
