
     RDKit          3D

 22 21  0  0  0  0  0  0  0  0999 V2000
   19.4570    8.2220   26.4550 C   0  0  0  0  0  0  0  0  0 19  0  0
   19.6250    7.0360   26.1960 O   0  0  0  0  0  0  0  0  0 20  0  0
   20.3960    8.9980   26.7290 O   0  0  0  0  0  0  0  0  0 21  0  0
   18.0030    8.7900   26.4430 C   0  0  0  0  0  0  0  0  0 18  0  0
   17.0170    7.7540   26.1230 N   0  0  0  0  0  0  0  0  0 17  0  0
   15.8090    8.0550   25.7060 C   0  0  0  0  0  0  0  0  0 15  0  0
   15.4160    9.2230   25.5520 O   0  0  0  0  0  0  0  0  0 16  0  0
   14.8660    6.8910   25.3940 C   0  0  0  0  0  0  0  0  0 14  0  0
   15.5420    5.7110   24.6950 C   0  0  0  0  0  0  0  0  0 13  0  0
   15.9480    6.0510   23.2710 C   0  0  0  0  0  0  0  0  0 12  0  0
   16.5150    4.8550   22.5590 C   0  0  0  0  0  0  0  0  0 11  0  0
   16.7670    5.2490   21.1520 C   0  0  0  0  0  0  0  0  0 10  0  0
   16.7200    4.0980   20.2290 C   0  0  0  0  0  0  0  0  0  9  0  0
   18.0840    3.5320   20.1200 C   0  0  0  0  0  0  0  0  0  8  0  0
   18.2070    2.5710   18.9860 C   0  0  0  0  0  0  0  0  0  7  0  0
   18.5540    1.1690   19.2910 C   0  0  0  0  0  0  0  0  0  6  0  0
   19.3630    0.3430   18.3330 C   0  0  0  0  0  0  0  0  0  5  0  0
   20.4330   -0.3950   19.0430 C   0  0  0  0  0  0  0  0  0  4  0  0
   21.2520   -1.2030   18.0590 C   0  0  0  0  0  0  0  0  0  3  0  0
   22.5530   -1.5760   18.6660 C   0  0  0  0  0  0  0  0  0  2  0  0
   23.3860   -2.3870   17.7220 C   0  0  0  0  0  0  0  0  0  1  0  0
   24.6640   -2.8080   18.3120 C   0  0  0  0  0  0  0  0  0  0  0  0
  2  1  2  0
  3  1  1  0
  4  1  1  0
  5  4  1  0
  6  5  1  0
  7  6  2  0
  8  6  1  0
  9  8  1  0
 10  9  1  0
 11 10  1  0
 12 11  1  0
 13 12  1  0
 14 13  1  0
 15 14  1  0
 16 15  1  0
 17 16  1  0
 18 17  1  0
 19 18  1  0
 20 19  1  0
 21 20  1  0
 22 21  1  0
M  END
$$$$
