
     RDKit          3D

 26 25  0  0  0  0  0  0  0  0999 V2000
   19.8650    8.4260   26.8110 C   0  0  0  0  0  0  0  0  0 23  0  0
   19.9990    7.2230   26.5520 O   0  0  0  0  0  0  0  0  0 24  0  0
   20.8330    9.1670   26.9900 O   0  0  0  0  0  0  0  0  0 25  0  0
   18.3780    9.0110   26.8990 C   0  0  2  0  0  0  0  0  0 18  0  0
   18.0840    9.3970   28.3490 C   0  0  0  0  0  0  0  0  0 19  0  0
   18.9460   10.5360   28.8580 C   0  0  0  0  0  0  0  0  0 20  0  0
   18.5870   10.9560   30.5790 S   0  0  0  0  0  0  0  0  0 21  0  0
   19.6230    9.7540   31.4260 C   0  0  0  0  0  0  0  0  0 22  0  0
   17.4310    7.9410   26.5940 N   0  0  0  0  0  0  0  0  0 17  0  0
   16.3150    8.1740   25.9420 C   0  0  0  0  0  0  0  0  0 15  0  0
   15.9750    9.3110   25.5730 O   0  0  0  0  0  0  0  0  0 16  0  0
   15.4290    6.9590   25.5840 C   0  0  0  0  0  0  0  0  0 14  0  0
   16.2110    5.8700   24.7940 C   0  0  0  0  0  0  0  0  0 13  0  0
   16.1690    6.0310   23.2800 C   0  0  0  0  0  0  0  0  0 12  0  0
   16.9620    4.9250   22.6180 C   0  0  0  0  0  0  0  0  0 11  0  0
   16.8910    5.0990   21.1550 C   0  0  0  0  0  0  0  0  0 10  0  0
   16.8420    3.8140   20.4250 C   0  0  0  0  0  0  0  0  0  9  0  0
   18.1430    3.6500   19.7630 C   0  0  0  0  0  0  0  0  0  8  0  0
   18.3210    2.3960   18.9390 C   0  0  0  0  0  0  0  0  0  7  0  0
   19.4020    1.4760   19.3920 C   0  0  0  0  0  0  0  0  0  6  0  0
   19.7670    0.1950   18.6910 C   0  0  0  0  0  0  0  0  0  5  0  0
   20.8810   -0.4820   19.4030 C   0  0  0  0  0  0  0  0  0  4  0  0
   21.4650   -1.6140   18.5750 C   0  0  0  0  0  0  0  0  0  3  0  0
   22.9400   -1.5020   18.5820 C   0  0  0  0  0  0  0  0  0  2  0  0
   23.5750   -2.5980   17.8040 C   0  0  0  0  0  0  0  0  0  1  0  0
   25.0340   -2.5070   17.8380 C   0  0  0  0  0  0  0  0  0  0  0  0
  2  1  2  0
  3  1  1  0
  4  1  1  0
  4  5  1  1
  6  5  1  0
  7  6  1  0
  8  7  1  0
  9  4  1  0
 10  9  1  0
 11 10  2  0
 12 10  1  0
 13 12  1  0
 14 13  1  0
 15 14  1  0
 16 15  1  0
 17 16  1  0
 18 17  1  0
 19 18  1  0
 20 19  1  0
 21 20  1  0
 22 21  1  0
 23 22  1  0
 24 23  1  0
 25 24  1  0
 26 25  1  0
M  END
$$$$
