
     RDKit          3D

 18 17  0  0  0  0  0  0  0  0999 V2000
   61.3340    3.1590    9.5650 C   0  0  0  0  0  0  0  0  0 15  0  0
   62.4640    3.6570    9.7390 O   0  0  0  0  0  0  0  0  0 16  0  0
   61.1680    1.9550    9.8360 O   0  0  0  0  0  0  0  0  0 17  0  0
   60.1930    4.0010    9.0690 C   0  0  0  0  0  0  0  0  0 14  0  0
   59.5340    3.4880    7.8010 C   0  0  0  0  0  0  0  0  0 13  0  0
   58.6920    4.5870    7.1730 C   0  0  0  0  0  0  0  0  0 12  0  0
   57.2140    4.3700    7.3990 C   0  0  0  0  0  0  0  0  0 11  0  0
   56.5730    5.4400    8.2700 C   0  0  0  0  0  0  0  0  0 10  0  0
   55.0700    5.4330    8.0590 C   0  0  0  0  0  0  0  0  0  9  0  0
   54.2790    5.5980    9.3380 C   0  0  0  0  0  0  0  0  0  8  0  0
   52.7820    5.4340    9.1150 C   0  0  0  0  0  0  0  0  0  7  0  0
   52.0670    6.6990    8.6720 C   0  0  0  0  0  0  0  0  0  6  0  0
   51.1920    7.2910    9.7600 C   0  0  0  0  0  0  0  0  0  5  0  0
   51.9630    8.2930   10.6070 C   0  0  0  0  0  0  0  0  0  4  0  0
   51.0530    9.0870   11.5330 C   0  0  0  0  0  0  0  0  0  3  0  0
   50.7410   10.4870   11.0170 C   0  0  0  0  0  0  0  0  0  2  0  0
   49.3440   10.9320   11.4150 C   0  0  0  0  0  0  0  0  0  1  0  0
   48.7680   11.8760   10.3790 C   0  0  0  0  0  0  0  0  0  0  0  0
  2  1  2  0
  3  1  1  0
  4  1  1  0
  5  4  1  0
  6  5  1  0
  7  6  1  0
  8  7  1  0
  9  8  1  0
 10  9  1  0
 11 10  1  0
 12 11  1  0
 13 12  1  0
 14 13  1  0
 15 14  1  0
 16 15  1  0
 17 16  1  0
 18 17  1  0
M  END
$$$$
