
     RDKit          3D

 27 27  0  0  0  0  0  0  0  0999 V2000
   16.7020    3.4960   26.9220 O   0  0  0  0  0  0  0  0  0  7  0  0
   17.2500    3.6860   25.8480 C   0  0  0  0  0  0  0  0  0  6  0  0
   16.6420    4.1650   24.7740 N   0  0  0  0  0  0  0  0  0  5  0  0
   15.2340    4.5180   24.7440 C   0  0  1  0  0  0  0  0  0  4  0  0
   15.2020    5.9920   24.2940 C   0  0  0  0  0  0  0  0  0  3  0  0
   15.8050    7.0050   25.2830 C   0  0  1  0  0  0  0  0  0  1  0  0
   15.9040    8.3970   24.6680 C   0  0  0  0  0  0  0  0  0  0  0  0
   15.0440    7.0930   26.5970 C   0  0  0  0  0  0  0  0  0  2  0  0
   14.5190    3.5780   23.7880 C   0  0  0  0  0  0  0  0  0 24  0  0
   15.0850    3.2870   22.7060 O   0  0  0  0  0  0  0  0  0 25  0  0
   13.3950    3.0970   24.0960 O   0  0  0  0  0  0  0  0  0 26  0  0
   18.7040    3.3650   25.6380 C   0  0  0  0  0  0  0  0  0  8  0  0
   18.7870    2.0820   24.8050 C   0  0  0  0  0  0  0  0  0  9  0  0
   19.5910    2.2090   23.5090 C   0  0  0  0  0  0  0  0  0 10  0  0
   20.7560    1.2250   23.5040 C   0  0  0  0  0  0  0  0  0 11  0  0
   20.7340    0.2670   22.3140 C   0  0  0  0  0  0  0  0  0 12  0  0
   22.1200   -0.3300   22.1310 C   0  0  0  0  0  0  0  0  0 13  0  0
   22.1790   -1.4020   21.0510 C   0  0  0  0  0  0  0  0  0 14  0  0
   23.3140   -1.1120   20.0670 C   0  0  0  0  0  0  0  0  0 15  0  0
   23.1160   -1.8600   18.7490 C   0  0  0  0  0  0  0  0  0 16  0  0
   22.1120   -1.1390   17.8450 C   0  0  0  0  0  0  0  0  0 17  0  0
   22.1160   -1.8150   16.4870 C   0  0  0  0  0  0  0  0  0 18  0  0
   21.3390   -0.9940   15.5170 N   0  0  0  0  0  0  0  0  0 19  0  0
   20.2000   -0.4950   15.6180 C   0  0  0  0  0  0  0  0  0 20  0  0
   19.9260    0.0820   14.5690 C   0  0  0  0  0  0  0  0  0 21  0  0
   20.8160   -0.1470   13.7260 N   0  0  0  0  0  0  0  0  0 22  0  0
   21.7860   -0.7230   14.3580 C   0  0  0  0  0  0  0  0  0 23  0  0
  2  1  2  0
  3  2  1  0
  4  3  1  0
  4  5  1  6
  6  5  1  0
  6  7  1  6
  8  6  1  0
  9  4  1  0
 10  9  2  0
 11  9  1  0
 12  2  1  0
 13 12  1  0
 14 13  1  0
 15 14  1  0
 16 15  1  0
 17 16  1  0
 18 17  1  0
 19 18  1  0
 20 19  1  0
 21 20  1  0
 22 21  1  0
 23 22  1  0
 24 23  1  0
 25 24  2  0
 26 25  1  0
 27 26  2  0
 27 23  1  0
M  END
$$$$
