
     RDKit          3D

 18 17  0  0  0  0  0  0  0  0999 V2000
    4.6640   55.0330    5.9890 C   0  0  0  0  0  0  0  0  0 15  0  0
    5.1490   54.1940    5.1780 O   0  0  0  0  0  0  0  0  0 16  0  0
    4.4500   56.2400    5.5990 O   0  0  0  0  0  0  0  0  0 17  0  0
    4.3710   54.5740    7.4310 C   0  0  0  0  0  0  0  0  0 14  0  0
    4.4880   53.0610    7.7760 C   0  0  0  0  0  0  0  0  0 13  0  0
    5.8840   52.5540    8.1910 C   0  0  0  0  0  0  0  0  0 12  0  0
    5.8670   51.1300    8.7800 C   0  0  0  0  0  0  0  0  0 11  0  0
    7.1010   50.8340    9.6470 C   0  0  0  0  0  0  0  0  0 10  0  0
    7.1640   49.4470   10.3200 C   0  0  0  0  0  0  0  0  0  9  0  0
    8.3650   49.3540   11.2970 C   0  0  0  0  0  0  0  0  0  8  0  0
    8.3120   48.1130   12.2190 C   0  0  0  0  0  0  0  0  0  7  0  0
    9.2460   48.1450   13.4360 C   0  0  0  0  0  0  0  0  0  6  0  0
    9.2970   49.4950   14.1480 C   0  0  0  0  0  0  0  0  0  5  0  0
    9.6470   49.4250   15.6380 C   0  0  0  0  0  0  0  0  0  4  0  0
   11.1440   49.2790   15.9360 C   0  0  0  0  0  0  0  0  0  3  0  0
   11.5120   49.4480   17.4230 C   0  0  0  0  0  0  0  0  0  2  0  0
   12.8340   50.1900   17.7390 C   0  0  0  0  0  0  0  0  0  1  0  0
   13.9870   49.3430   18.3150 C   0  0  0  0  0  0  0  0  0  0  0  0
  2  1  2  0
  3  1  1  0
  4  1  1  0
  5  4  1  0
  6  5  1  0
  7  6  1  0
  8  7  1  0
  9  8  1  0
 10  9  1  0
 11 10  1  0
 12 11  2  3
 13 12  1  0
 14 13  1  0
 15 14  1  0
 16 15  1  0
 17 16  1  0
 18 17  1  0
M  END
$$$$
