
     RDKit          3D

 21 24  0  0  0  0  0  0  0  0999 V2000
   17.1870   24.4890  -66.3720 C   0  0  0  0  0  0  0  0  0 13  0  0
   18.5590   25.1820  -66.5210 C   0  0  0  0  0  0  0  0  0 12  0  0
   18.7330   25.5410  -67.8970 C   0  0  0  0  0  0  0  0  0 10  0  0
   19.8200   25.6860  -68.3940 O   0  0  0  0  0  0  0  0  0 11  0  0
   17.6060   25.7470  -68.6690 C   0  0  0  0  0  0  0  0  0  9  0  0
   16.3430   25.7630  -68.2240 C   0  0  0  0  0  0  0  0  0  8  0  0
   15.2280   26.1960  -69.1470 C   0  0  0  0  0  0  0  0  0  7  0  0
   13.9100   25.3280  -69.0690 C   0  0  0  0  0  0  0  0  0  6  0  0
   13.5700   25.1960  -67.5750 C   0  0  2  0  0  0  0  0  0  5  0  0
   14.7270   24.6090  -66.7520 C   0  0  1  0  0  0  0  0  0  4  0  0
   16.0420   25.3920  -66.8130 C   0  0  1  0  0  0  0  0  0 14  0  0
   14.2710   24.3260  -65.3130 C   0  0  0  0  0  0  0  0  0  3  0  0
   12.9430   23.2830  -65.2230 C   0  0  0  0  0  0  0  0  0  2  0  0
   11.9210   24.0090  -66.0780 C   0  0  1  0  0  0  0  0  0  1  0  0
   12.4200   24.1730  -67.5080 C   0  0  1  0  0  0  0  0  0 16  0  0
   11.1620   24.6010  -68.2700 C   0  0  0  0  0  0  0  0  0 17  0  0
   10.0720   23.7300  -67.5990 C   0  0  0  0  0  0  0  0  0 18  0  0
   10.7900   22.9950  -66.2690 C   0  0  2  0  0  0  0  0  0 19  0  0
    9.8590   22.9130  -65.1930 O   0  0  0  0  0  0  0  0  0 20  0  0
   11.4260   25.2870  -65.3840 C   0  0  0  0  0  0  0  0  0  0  0  0
   15.9720   26.6900  -65.9790 C   0  0  0  0  0  0  0  0  0 15  0  0
  2  1  1  0
  3  2  1  0
  4  3  2  0
  5  3  1  0
  6  5  2  0
  7  6  1  0
  8  7  1  0
  9  8  1  6
 10  9  1  0
 11 10  1  0
 11  6  1  0
 11  1  1  0
 10 12  1  1
 13 12  1  0
 14 13  1  0
 15 14  1  0
 15  9  1  0
 15 16  1  6
 17 16  1  0
 18 17  1  0
 18 14  1  0
 18 19  1  1
 14 20  1  1
 11 21  1  1
M  END
$$$$
