
     RDKit          3D

  4  3  0  0  0  0  0  0  0  0999 V2000
   33.5580   14.8330   12.0690 N   0  0  0  0  0  0  0  0  0  3  0  0
   33.9220   16.2030   11.6250 C   0  0  1  0  0  0  0  0  0  1  0  0
   32.7330   16.8630   11.0470 C   0  0  0  0  0  0  0  0  0  0  0  0
   34.6500   16.9400   12.6890 C   0  0  0  0  0  0  0  0  0  2  0  0
  2  1  1  0
  2  3  1  1
  4  2  1  0
M  END
$$$$
