
     RDKit          3D

 21 24  0  0  0  0  0  0  0  0999 V2000
   -6.9370  -10.8860   -9.9290 C   0  0  0  0  0  0  0  0  0 13  0  0
   -8.3510  -10.3090   -9.9550 C   0  0  0  0  0  0  0  0  0 12  0  0
   -8.3910   -9.1340  -10.8800 C   0  0  0  0  0  0  0  0  0 10  0  0
   -9.2970   -8.3230  -10.7580 O   0  0  0  0  0  0  0  0  0 11  0  0
   -7.3630   -9.0270  -11.9340 C   0  0  0  0  0  0  0  0  0  9  0  0
   -6.5220  -10.0460  -12.1840 C   0  0  0  0  0  0  0  0  0  8  0  0
   -5.7520  -10.0780  -13.4640 C   0  0  0  0  0  0  0  0  0  7  0  0
   -4.2940  -10.3610  -13.1470 C   0  0  0  0  0  0  0  0  0  6  0  0
   -4.1690  -11.7360  -12.5560 C   0  0  2  0  0  0  0  0  0  5  0  0
   -4.9130  -11.7010  -11.2220 C   0  0  1  0  0  0  0  0  0  4  0  0
   -6.3900  -11.2650  -11.3050 C   0  0  1  0  0  0  0  0  0 14  0  0
   -4.7300  -13.0610  -10.5580 C   0  0  0  0  0  0  0  0  0  3  0  0
   -3.2420  -13.4240  -10.4010 C   0  0  0  0  0  0  0  0  0  2  0  0
   -2.5200  -13.4890  -11.7180 C   0  0  1  0  0  0  0  0  0  1  0  0
   -2.7120  -12.1430  -12.3560 C   0  0  1  0  0  0  0  0  0 16  0  0
   -1.7710  -12.2590  -13.5380 C   0  0  0  0  0  0  0  0  0 17  0  0
   -0.5410  -13.0010  -12.9930 C   0  0  0  0  0  0  0  0  0 18  0  0
   -0.9840  -13.5610  -11.6410 C   0  0  2  0  0  0  0  0  0 19  0  0
   -0.3980  -14.8600  -11.3620 O   0  0  0  0  0  0  0  0  0 20  0  0
   -3.1050  -14.6280  -12.5510 C   0  0  0  0  0  0  0  0  0  0  0  0
   -7.2660  -12.3760  -11.8930 C   0  0  0  0  0  0  0  0  0 15  0  0
  2  1  1  0
  3  2  1  0
  4  3  2  0
  5  3  1  0
  6  5  2  0
  7  6  1  0
  8  7  1  0
  9  8  1  1
 10  9  1  0
 11  6  1  0
 11  1  1  0
 11 10  1  0
 10 12  1  6
 13 12  1  0
 14 13  1  0
 15 14  1  0
 15  9  1  0
 15 16  1  6
 17 16  1  0
 18 17  1  0
 18 14  1  0
 18 19  1  6
 14 20  1  6
 11 21  1  6
M  END
$$$$
