
     RDKit          3D

 10 11  0  0  0  0  0  0  0  0999 V2000
   33.7070   14.9360  -61.8960 N   0  0  0  0  0  0  0  0  0  0  0  0
   34.0890   16.2150  -62.5680 C   0  0  2  0  0  0  0  0  0  1  0  0
   34.4660   17.1210  -61.5330 C   0  0  0  0  0  0  0  0  0  9  0  0
   35.6560   17.0470  -60.7860 C   0  0  0  0  0  0  0  0  0  8  0  0
   35.8150   18.0300  -59.7940 C   0  0  0  0  0  0  0  0  0  7  0  0
   32.8750   16.8540  -63.2170 C   0  0  0  0  0  0  0  0  0  2  0  0
   32.3150   17.9770  -62.3250 C   0  0  0  0  0  0  0  0  0  3  0  0
   33.4790   18.0880  -61.3650 C   0  0  0  0  0  0  0  0  0  4  0  0
   33.6600   19.0660  -60.4080 C   0  0  0  0  0  0  0  0  0  5  0  0
   34.8300   19.0030  -59.6340 C   0  0  0  0  0  0  0  0  0  6  0  0
  2  1  1  1
  3  2  1  0
  4  3  2  0
  5  4  1  0
  6  2  1  0
  7  6  1  0
  8  7  1  0
  8  3  1  0
  9  8  2  0
 10  9  1  0
 10  5  2  0
M  END
$$$$
