
     RDKit          3D

  3  2  0  0  0  0  0  0  0  0999 V2000
   13.2510   14.9990  -12.1350 N   0  0  0  0  0  0  0  0  0  2  0  0
   12.4420   16.1780  -12.2650 C   0  0  0  0  0  0  0  0  0  1  0  0
   13.3470   17.3620  -12.5150 C   0  0  0  0  0  0  0  0  0  0  0  0
  2  1  1  0
  3  2  1  0
M  END
$$$$
