
     RDKit          3D

 25 24  0  0  0  0  0  0  0  0999 V2000
   18.0430   -2.6430   57.9000 O   0  0  0  0  0  0  0  0  0 23  0  0
   21.8040  -14.4720   49.3790 C   0  0  0  0  0  0  0  0  0  0  0  0
   20.7170  -13.9720   48.4610 C   0  0  0  0  0  0  0  0  0  1  0  0
   19.8760  -12.9320   49.1520 C   0  0  0  0  0  0  0  0  0  2  0  0
   18.4150  -13.1760   49.2640 C   0  0  0  0  0  0  0  0  0  3  0  0
   17.9400  -12.0090   50.1270 C   0  0  0  0  0  0  0  0  0  4  0  0
   16.8680  -11.2810   49.3750 C   0  0  0  0  0  0  0  0  0  5  0  0
   16.2360  -10.3620   50.4150 C   0  0  0  0  0  0  0  0  0  6  0  0
   15.8720   -9.0740   49.7320 C   0  0  0  0  0  0  0  0  0  7  0  0
   15.0020   -8.1740   50.6260 C   0  0  0  0  0  0  0  0  0  8  0  0
   15.8120   -7.4490   51.6730 C   0  0  0  0  0  0  0  0  0  9  0  0
   14.9320   -6.2980   52.1700 C   0  0  0  0  0  0  0  0  0 10  0  0
   14.2530   -6.7410   53.4410 C   0  0  0  0  0  0  0  0  0 11  0  0
   13.9250   -5.4800   54.2310 C   0  0  0  0  0  0  0  0  0 12  0  0
   13.3710   -5.9640   55.5500 C   0  0  0  0  0  0  0  0  0 13  0  0
   12.6260   -4.7780   56.1590 C   0  0  0  0  0  0  0  0  0 14  0  0
   13.5170   -3.6230   56.5710 C   0  0  0  0  0  0  0  0  0 15  0  0
   14.7540   -3.8660   57.1450 N   0  0  0  0  0  0  0  0  0 17  0  0
   15.6680   -2.7880   57.6260 C   0  0  2  0  0  0  0  0  0 18  0  0
   17.0860   -3.3890   57.5790 C   0  0  0  0  0  0  0  0  0 22  0  0
   17.2060   -4.5940   57.2270 O   0  0  0  0  0  0  0  0  0 24  0  0
   15.2100   -2.4510   59.0520 C   0  0  0  0  0  0  0  0  0 19  0  0
   15.8440   -1.1610   59.6050 C   0  0  0  0  0  0  0  0  0 20  0  0
   16.9610   -1.6520   60.3000 O   0  0  0  0  0  0  0  0  0 21  0  0
   13.1670   -2.4000   56.3940 O   0  0  0  0  0  0  0  0  0 16  0  0
  3  2  1  0
  4  3  1  0
  5  4  1  0
  6  5  1  0
  7  6  1  0
  8  7  1  0
  9  8  1  0
 10  9  1  0
 11 10  1  0
 12 11  1  0
 13 12  1  0
 14 13  1  0
 15 14  1  0
 16 15  1  0
 17 16  1  0
 18 17  1  0
 19 18  1  0
 20 19  1  0
 20  1  2  0
 21 20  1  0
 19 22  1  1
 23 22  1  0
 24 23  1  0
 25 17  2  0
M  END
$$$$
