
     RDKit          3D

  8  8  0  0  0  0  0  0  0  0999 V2000
   30.5880   40.4800   15.3540 C   0  0  0  0  0  0  0  0  0  0  0  0
   30.4670   41.8810   14.8130 C   0  0  0  0  0  0  0  0  0  1  0  0
   30.2480   42.9550   15.6530 C   0  0  0  0  0  0  0  0  0  2  0  0
   30.1360   44.2470   15.1680 C   0  0  0  0  0  0  0  0  0  3  0  0
   30.5720   42.1350   13.4590 C   0  0  0  0  0  0  0  0  0  7  0  0
   30.4630   43.4190   12.9500 C   0  0  0  0  0  0  0  0  0  6  0  0
   30.2440   44.4810   13.8090 C   0  0  0  0  0  0  0  0  0  4  0  0
   30.1340   45.7500   13.3190 O   0  0  0  0  0  0  0  0  0  5  0  0
  2  1  1  0
  3  2  2  0
  4  3  1  0
  5  2  1  0
  6  5  2  0
  7  6  1  0
  7  4  2  0
  8  7  1  0
M  END
$$$$
