
     RDKit          3D

 12 12  0  0  0  0  0  0  0  0999 V2000
   25.3530   14.1210   16.2910 N   0  0  0  0  0  0  0  0  0  0  0  0
   25.3700   14.3920   15.6690 C   0  0  0  0  0  0  0  0  0  1  0  0
   25.4950   14.9130   14.4120 C   0  0  0  0  0  0  0  0  0  2  0  0
   24.5100   15.6720   13.7760 C   0  0  0  0  0  0  0  0  0  3  0  0
   26.6830   14.6630   13.7630 C   0  0  0  0  0  0  0  0  0 10  0  0
   27.6240   13.9340   14.4020 O   0  0  0  0  0  0  0  0  0 11  0  0
   26.9060   15.1490   12.5100 C   0  0  0  0  0  0  0  0  0  9  0  0
   25.9400   15.8860   11.8800 C   0  0  0  0  0  0  0  0  0  8  0  0
   24.7330   16.1640   12.4920 C   0  0  0  0  0  0  0  0  0  4  0  0
   23.8230   16.9010   11.8350 N   0  0  0  0  0  0  0  0  0  5  0  0
   24.0050   17.2270   10.7280 O   0  0  0  0  0  0  0  0  0  6  0  0
   22.9260   17.2140   12.3400 O   0  0  0  0  0  0  0  0  0  7  0  0
  2  1  3  0
  3  2  1  0
  4  3  2  0
  5  3  1  0
  6  5  1  0
  7  5  2  0
  8  7  1  0
  9  8  2  0
  9  4  1  0
 10  9  1  0
 11 10  2  0
 12 10  1  0
M  CHG  2  10   1  12  -1
M  END
$$$$
