
     RDKit          3D

 24 25  0  0  0  0  0  0  0  0999 V2000
  -26.7090   -1.2490  -15.1960 C   0  0  0  0  0  0  0  0  0 11  0  0
  -24.6740   -0.5800  -15.3620 C   0  0  0  0  0  0  0  0  0  9  0  0
  -25.1370   -0.3160  -14.0850 C   0  0  0  0  0  0  0  0  0  8  0  0
  -27.2430   -0.6560  -12.8570 C   0  0  0  0  0  0  0  0  0  6  0  0
  -26.7740   -1.6610  -11.8020 C   0  0  0  0  0  0  0  0  0  5  0  0
  -26.5000   -3.0470  -12.3880 C   0  0  0  0  0  0  0  0  0  4  0  0
  -25.0100   -3.3790  -12.4400 C   0  0  0  0  0  0  0  0  0  3  0  0
  -24.7320   -4.7990  -11.9530 C   0  0  0  0  0  0  0  0  0  2  0  0
  -23.7850   -4.8240  -10.7530 C   0  0  0  0  0  0  0  0  0  1  0  0
  -23.4860   -5.0080   -8.2430 C   0  0  2  0  0  0  0  0  0 13  0  0
  -23.8610   -6.2340   -7.4180 C   0  0  0  0  0  0  0  0  0 21  0  0
  -23.7110   -3.7780   -7.3650 C   0  0  0  0  0  0  0  0  0 14  0  0
  -24.0220   -2.4960   -8.1320 C   0  0  0  0  0  0  0  0  0 15  0  0
  -25.2100   -1.8230   -7.8890 C   0  0  0  0  0  0  0  0  0 16  0  0
  -25.4980   -0.6540   -8.5750 C   0  0  0  0  0  0  0  0  0 17  0  0
  -24.5950   -0.1600   -9.5040 C   0  0  0  0  0  0  0  0  0 18  0  0
  -23.4070   -0.8310   -9.7460 C   0  0  0  0  0  0  0  0  0 19  0  0
  -23.1180   -2.0000   -9.0580 C   0  0  0  0  0  0  0  0  0 20  0  0
  -25.6730   -1.1530  -16.0040 N   0  0  0  0  0  0  0  0  0 10  0  0
  -26.3850   -0.7400  -14.0250 N   0  0  0  0  0  0  0  0  0  7  0  0
  -24.3400   -4.9760   -9.4170 N   0  0  0  0  0  0  0  0  0 12  0  0
  -23.0550   -6.6850   -6.5630 O   0  0  0  0  0  0  0  0  0 22  0  0
  -24.9830   -6.7810   -7.5910 O   0  0  0  0  0  0  0  0  0 23  0  0
  -22.6170   -4.7050  -10.9100 O   0  0  0  0  0  0  0  0  0  0  0  0
  3  2  2  0
  5  4  1  0
  6  5  1  0
  7  6  1  0
  8  7  1  0
  9  8  1  0
 11 10  1  0
 10 12  1  1
 13 12  1  0
 14 13  2  0
 15 14  1  0
 16 15  2  0
 17 16  1  0
 18 17  2  0
 18 13  1  0
 19  2  1  0
 19  1  2  0
 20  4  1  0
 20  3  1  0
 20  1  1  0
 21 10  1  0
 21  9  1  0
 22 11  2  0
 23 11  1  0
 24  9  2  0
M  END
$$$$
