
     RDKit          3D

 18 18  0  0  0  0  0  0  0  0999 V2000
  -12.6440   32.9730   28.4770 N   0  0  0  0  0  0  0  0  0 11  0  0
  -11.3560   28.3440   18.7600 C   0  0  0  0  0  0  0  0  0  0  0  0
  -13.4790   34.3570   26.8590 O   0  0  0  0  0  0  0  0  0 10  0  0
  -12.4890   28.4850   19.7330 C   0  0  0  0  0  0  0  0  0  1  0  0
   -9.3690   32.9510   29.6180 O   0  0  0  0  0  0  0  0  0 15  0  0
  -12.0690   29.0860   21.0440 C   0  0  0  0  0  0  0  0  0  2  0  0
   -9.8690   32.1950   27.6190 O   0  0  0  0  0  0  0  0  0 17  0  0
  -13.2020   29.7780   21.7830 C   0  0  0  0  0  0  0  0  0  3  0  0
  -12.8110   30.3750   23.1280 C   0  0  0  0  0  0  0  0  0  4  0  0
  -14.0330   30.6540   24.0140 C   0  0  0  0  0  0  0  0  0  5  0  0
  -13.6960   31.3960   25.2890 C   0  0  0  0  0  0  0  0  0  6  0  0
  -14.8750   32.1000   25.9380 C   0  0  0  0  0  0  0  0  0  7  0  0
  -14.6590   32.4000   27.3750 C   0  0  0  0  0  0  0  0  0  8  0  0
  -13.5590   33.3480   27.5570 C   0  0  0  0  0  0  0  0  0  9  0  0
  -11.4310   33.7010   28.7530 C   0  0  1  0  0  0  0  0  0 12  0  0
  -11.3300   34.1530   30.2000 C   0  0  0  0  0  0  0  0  0 13  0  0
   -9.8740   33.9530   30.5570 C   0  0  0  0  0  0  0  0  0 14  0  0
  -10.1820   32.8510   28.5720 C   0  0  0  0  0  0  0  0  0 16  0  0
  4  2  1  0
  6  4  1  0
  8  6  1  0
  9  8  1  0
 10  9  1  0
 11 10  1  0
 12 11  1  0
 13 12  1  0
 14 13  1  0
 14  3  2  0
 14  1  1  0
 15  1  1  1
 16 15  1  0
 17 16  1  0
 17  5  1  0
 18 15  1  0
 18  7  2  0
 18  5  1  0
M  END
$$$$
