
     RDKit          3D

 15 15  0  0  0  0  0  0  0  0999 V2000
  -11.1870   74.6460  123.5210 N   0  0  0  0  0  0  0  0  0  8  0  0
  -19.2360   76.3290  125.6550 C   0  0  0  0  0  0  0  0  0  0  0  0
   -8.6460   74.3020  122.9480 O   0  0  0  0  0  0  0  0  0 11  0  0
  -18.4580   75.4780  126.5620 C   0  0  0  0  0  0  0  0  0  1  0  0
  -11.7950   75.3550  126.1900 C   0  0  0  0  0  0  0  0  0 13  0  0
  -14.1940   75.4590  125.4540 C   0  0  0  0  0  0  0  0  0 14  0  0
  -17.2230   74.8850  125.8810 C   0  0  0  0  0  0  0  0  0  2  0  0
  -16.6150   75.7810  124.8560 C   0  0  0  0  0  0  0  0  0  3  0  0
  -15.2060   75.3780  124.5090 C   0  0  0  0  0  0  0  0  0  4  0  0
  -14.8660   75.0310  123.2190 C   0  0  0  0  0  0  0  0  0  5  0  0
  -13.5500   74.8030  122.8680 C   0  0  0  0  0  0  0  0  0  6  0  0
  -12.5390   74.9260  123.8190 C   0  0  0  0  0  0  0  0  0  7  0  0
  -10.7430   74.0910  122.3740 C   0  0  0  0  0  0  0  0  0  9  0  0
  -12.8560   75.2460  125.1320 C   0  0  0  0  0  0  0  0  0 12  0  0
   -9.5580   73.8190  122.0130 N   0  0  0  0  0  0  0  0  0 10  0  0
  4  2  1  0
  7  4  1  0
  8  7  1  0
  9  8  1  0
  9  6  2  0
 10  9  1  0
 11 10  2  0
 12 11  1  0
 12  1  1  0
 13  1  1  0
 14 12  2  0
 14  6  1  0
 14  5  1  0
 15 13  2  3
 15  3  1  0
M  END
$$$$
