
     RDKit          3D

 17 19  0  0  0  0  0  0  0  0999 V2000
   52.0590  -47.7860   -3.9430 C   0  0  0  0  0  0  0  0  0  8  0  0
   53.1150  -46.6820   -4.1050 C   0  0  0  0  0  0  0  0  0  7  0  0
   52.6490  -45.2020   -4.1170 C   0  0  2  0  0  0  0  0  0  6  0  0
   51.5970  -45.0290   -3.1430 N   0  0  0  0  0  0  0  0  0 14  0  0
   51.1710  -43.8120   -2.6220 C   0  0  0  0  0  0  0  0  0 13  0  0
   50.1690  -44.0070   -1.7430 N   0  0  0  0  0  0  0  0  0 12  0  0
   49.9450  -45.3850   -1.7220 C   0  0  0  0  0  0  0  0  0 11  0  0
   50.8190  -46.0440   -2.5800 C   0  0  0  0  0  0  0  0  0 10  0  0
   50.9750  -47.4790   -2.8990 C   0  0  0  0  0  0  0  0  0  9  0  0
   52.1960  -44.7550   -5.5380 C   0  0  0  0  0  0  0  0  0  5  0  0
   53.0780  -44.6260   -6.6200 C   0  0  0  0  0  0  0  0  0  4  0  0
   52.6710  -44.2170   -7.9000 C   0  0  0  0  0  0  0  0  0  3  0  0
   51.3490  -43.8990   -8.1960 C   0  0  0  0  0  0  0  0  0  2  0  0
   50.4580  -44.0160   -7.1310 C   0  0  0  0  0  0  0  0  0 16  0  0
   50.8670  -44.4250   -5.8560 C   0  0  0  0  0  0  0  0  0 15  0  0
   50.8750  -43.4810   -9.4620 C   0  0  0  0  0  0  0  0  0  1  0  0
   50.4800  -43.1350  -10.5100 N   0  0  0  0  0  0  0  0  0  0  0  0
  2  1  1  0
  2  3  1  1
  4  3  1  0
  5  4  1  0
  6  5  2  0
  7  6  1  0
  8  7  2  0
  8  4  1  0
  9  8  1  6
  1  9  1  6
  3 10  1  6
 11 10  2  0
 12 11  1  0
 13 12  2  0
 14 13  1  0
 15 14  2  0
 15 10  1  0
 16 13  1  0
 17 16  3  0
M  END
$$$$
