
     RDKit          3D

 55 57  0  0  0  0  0  0  0  0999 V2000
    1.4710    0.1830  -11.6210 C   0  0  0  0  0  0  0  0  0 47  0  0
   -3.2450   -2.3440   -8.8060 C   0  0  0  0  0  0  0  0  0 34  0  0
   -3.1430   -1.1550   -9.5450 C   0  0  0  0  0  0  0  0  0 31  0  0
   -2.7200    0.0380   -8.9560 C   0  0  0  0  0  0  0  0  0 30  0  0
   -2.3290    0.0640   -7.5790 C   0  0  0  0  0  0  0  0  0 29  0  0
   -2.4330   -1.1450   -6.8310 C   0  0  0  0  0  0  0  0  0 38  0  0
   -2.8950   -2.3320   -7.4750 C   0  0  0  0  0  0  0  0  0 36  0  0
   -1.8690    1.2420   -6.9170 C   0  0  0  0  0  0  0  0  0 24  0  0
   -1.5310    1.2220   -5.5590 C   0  0  0  0  0  0  0  0  0 22  0  0
   -1.6190    0.0340   -4.8230 C   0  0  0  0  0  0  0  0  0 21  0  0
   -2.0730   -1.1410   -5.4510 C   0  0  0  0  0  0  0  0  0 39  0  0
   -1.0300    2.5010   -4.9340 C   0  0  0  0  0  0  0  0  0 23  0  0
   -3.7260   -3.6210   -9.4480 C   0  0  0  0  0  0  0  0  0 35  0  0
   -2.5680    1.2300   -9.8210 C   0  0  0  0  0  0  0  0  0 41  0  0
   -1.1890    1.5280  -10.2760 C   0  0  0  0  0  0  0  0  0 43  0  0
   -0.2320    0.6890   -9.8670 C   0  0  0  0  0  0  0  0  0 45  0  0
    1.2690    0.5850  -10.1650 C   0  0  1  0  0  0  0  0  0 46  0  0
   -0.9840    2.7420  -11.1350 C   0  0  0  0  0  0  0  0  0 44  0  0
    2.0470   -0.4060   -9.2740 C   0  0  1  0  0  0  0  0  0 49  0  0
   -4.8590   -0.8020  -11.1050 C   0  0  0  0  0  0  0  0  0 33  0  0
   -1.4490    0.7370   -2.3800 C   0  0  0  0  0  0  0  0  0 18  0  0
   -0.4330    0.6590   -1.2790 C   0  0  0  0  0  0  0  0  0 16  0  0
    0.8680    0.4360   -1.5300 C   0  0  0  0  0  0  0  0  0 15  0  0
   -0.9920    0.8270    0.1060 C   0  0  0  0  0  0  0  0  0 17  0  0
    1.9580    0.3360   -0.5920 C   0  0  0  0  0  0  0  0  0 14  0  0
    3.2410    0.2660   -0.9200 C   0  0  0  0  0  0  0  0  0 13  0  0
    3.8970    0.3440   -2.2730 C   0  0  2  0  0  0  0  0  0 11  0  0
    4.6710   -0.9490   -2.5670 C   0  0  2  0  0  0  0  0  0  9  0  0
    5.5650   -0.9320   -3.8240 C   0  0  2  0  0  0  0  0  0  7  0  0
    4.8420   -1.3560   -5.1190 C   0  0  2  0  0  0  0  0  0  5  0  0
    3.8420   -0.3670   -5.7370 C   0  0  2  0  0  0  0  0  0  4  0  0
    3.4950   -0.7750   -7.1770 C   0  0  1  0  0  0  0  0  0 53  0  0
    2.4040    0.0700   -7.8600 C   0  0  2  0  0  0  0  0  0 51  0  0
    1.1740    0.1450   -6.9510 C   0  0  0  0  0  0  0  0  0 52  0  0
    4.8240    1.5490   -2.2910 C   0  0  0  0  0  0  0  0  0 12  0  0
    6.7980   -1.8160   -3.5990 C   0  0  0  0  0  0  0  0  0  8  0  0
   -2.8210    3.2940   -7.5830 C   0  0  0  0  0  0  0  0  0 26  0  0
   -2.4570    4.6230   -8.1450 C   0  0  0  0  0  0  0  0  0 27  0  0
    4.3670    1.0560   -5.7380 C   0  0  0  0  0  0  0  0  0  2  0  0
    3.7580    3.3190   -5.5010 C   0  0  0  0  0  0  0  0  0  0  0  0
   -1.2730   -0.0520   -3.4520 N   0  0  0  0  0  0  0  0  0 20  0  0
    1.3630   -1.6550   -9.2140 O   0  0  0  0  0  0  0  0  0 50  0  0
    1.8710    1.8670   -9.9930 O   0  0  0  0  0  0  0  0  0 48  0  0
    3.7630   -2.0500   -2.6050 O   0  0  0  0  0  0  0  0  0 10  0  0
   -2.9850   -3.4640   -6.7390 O   0  0  0  0  0  0  0  0  0 37  0  0
   -2.1850   -2.3020   -4.7630 O   0  0  0  0  0  0  0  0  0 40  0  0
   -3.4890   -1.1380  -10.8860 O   0  0  0  0  0  0  0  0  0 32  0  0
   -3.4890    1.9510  -10.2070 O   0  0  0  0  0  0  0  0  0 42  0  0
   -2.4460    1.4430   -2.2660 O   0  0  0  0  0  0  0  0  0 19  0  0
    4.6870   -0.7650   -7.9590 O   0  0  0  0  0  0  0  0  0 54  0  0
    4.1900   -2.6070   -4.9180 O   0  0  0  0  0  0  0  0  0  6  0  0
   -1.7430    2.4650   -7.5840 O   0  0  0  0  0  0  0  0  0 25  0  0
   -3.8950    2.9560   -7.1910 O   0  0  0  0  0  0  0  0  0 28  0  0
    5.4660    1.3680   -6.1120 O   0  0  0  0  0  0  0  0  0  3  0  0
    3.4520    1.9180   -5.3090 O   0  0  0  0  0  0  0  0  0  1  0  0
  3  2  2  0
  4  3  1  0
  5  4  2  0
  6  5  1  0
  7  6  2  0
  7  2  1  0
  8  5  1  0
  9  8  2  0
 10  9  1  0
 11  6  1  0
 11 10  2  0
 12  9  1  0
 13  2  1  0
 14  4  1  0
 15 14  1  0
 16 15  2  3
 17  1  1  6
 17 16  1  0
 18 15  1  0
 19 17  1  0
 22 21  1  0
 23 22  2  3
 24 22  1  0
 25 23  1  0
 26 25  2  3
 27 26  1  0
 28 27  1  0
 29 28  1  0
 30 29  1  0
 31 30  1  0
 32 31  1  0
 33 32  1  0
 33 19  1  0
 33 34  1  1
 27 35  1  1
 29 36  1  1
 38 37  1  0
 31 39  1  6
 41 21  1  0
 41 10  1  0
 19 42  1  1
 43 17  1  0
 28 44  1  6
 45  7  1  0
 46 11  1  0
 47 20  1  0
 47  3  1  0
 48 14  2  0
 21 49  2  0
 32 50  1  6
 30 51  1  1
 52 37  1  0
 52  8  1  0
 53 37  2  0
 54 39  2  0
 55 40  1  0
 55 39  1  0
M  END
$$$$
