
     RDKit          3D

 13 14  0  0  0  0  0  0  0  0999 V2000
  -41.2930   17.1390  -25.2380 C   0  0  0  0  0  0  0  0  0  0  0  0
  -41.2980   15.9520  -25.9220 C   0  0  0  0  0  0  0  0  0  1  0  0
  -41.4610   17.1490  -23.8650 C   0  0  0  0  0  0  0  0  0 12  0  0
  -45.2180   13.5600  -21.8070 C   0  0  0  0  0  0  0  0  0  7  0  0
  -43.7730   13.2090  -20.0920 C   0  0  0  0  0  0  0  0  0  9  0  0
  -41.4880   14.7610  -25.2250 C   0  0  0  0  0  0  0  0  0  2  0  0
  -41.6180   15.9590  -23.1880 C   0  0  0  0  0  0  0  0  0 11  0  0
  -44.2030   13.6000  -22.7090 C   0  0  0  0  0  0  0  0  0  6  0  0
  -42.7120   13.2720  -20.9410 C   0  0  0  0  0  0  0  0  0 10  0  0
  -41.7970   13.4910  -23.1650 C   0  0  0  0  0  0  0  0  0  4  0  0
  -44.9680   13.3630  -20.5640 N   0  0  0  0  0  0  0  0  0  8  0  0
  -41.6490   14.7840  -23.8610 C   0  0  0  0  0  0  0  0  0  3  0  0
  -42.9440   13.4610  -22.2430 C   0  0  0  0  0  0  0  0  0  5  0  0
  2  1  2  0
  3  1  1  0
  6  2  1  0
  7  3  2  0
  8  4  2  0
  9  5  1  0
 11  4  1  0
 11  5  2  0
 12 10  1  0
 12  7  1  0
 12  6  2  0
 13  8  1  0
 13 10  1  0
 13  9  2  0
M  END
$$$$
