
     RDKit          3D

 11 12  0  0  0  0  0  0  0  0999 V2000
   29.1120  -22.0200   25.5700 C   0  0  1  0  0  0  0  0  0  8  0  0
   29.8330  -21.0670   24.6060 C   0  0  0  0  0  0  0  0  0 10  0  0
   30.7060  -20.2150   25.5250 C   0  0  1  0  0  0  0  0  0  3  0  0
   29.7930  -19.2890   26.3280 C   0  0  0  0  0  0  0  0  0  4  0  0
   29.0680  -20.2400   27.2960 C   0  0  0  0  0  0  0  0  0  5  0  0
   31.0790  -21.2180   26.5710 C   0  0  2  0  0  0  0  0  0  1  0  0
   31.8030  -20.5670   27.7520 C   0  0  0  0  0  0  0  0  0  0  0  0
   31.8550  -22.3990   25.9830 C   0  0  0  0  0  0  0  0  0  2  0  0
   29.5380  -22.6500   28.0080 C   0  0  0  0  0  0  0  0  0  7  0  0
   29.6060  -23.8910   25.1890 Br  0  0  0  0  0  0  0  0  0  9  0  0
   29.6790  -21.5830   26.9120 C   0  0  2  0  0  0  0  0  0  6  0  0
  2  1  1  0
  3  2  1  6
  4  3  1  0
  5  4  1  0
  6  3  1  0
  6  7  1  1
  8  6  1  0
  1 10  1  6
 11  1  1  0
 11  9  1  1
 11  6  1  0
 11  5  1  0
M  END
$$$$
