
     RDKit          3D

 49 51  0  0  0  0  0  0  0  0999 V2000
  -13.1890   -3.1100   29.6430 O   0  0  0  0  0  0  0  0  0  5  0  0
  -14.3090   -2.6800   29.9650 C   0  0  0  0  0  0  0  0  0  4  0  0
  -14.6800   -1.3360   29.6680 O   0  0  0  0  0  0  0  0  0  3  0  0
  -13.6960   -0.4600   29.1130 C   0  0  2  0  0  0  0  0  0  2  0  0
  -13.8320    0.9000   29.7900 C   0  0  0  0  0  0  0  0  0  1  0  0
  -13.8120    0.7790   31.2870 C   0  0  0  0  0  0  0  0  0  0  0  0
  -13.9550   -0.3880   27.6160 C   0  0  2  0  0  0  0  0  0 47  0  0
  -15.4540   -0.3360   27.3190 C   0  0  0  0  0  0  0  0  0 48  0  0
  -13.2890   -1.5630   26.8790 C   0  0  2  0  0  0  0  0  0 45  0  0
  -11.8480   -1.5490   26.9820 O   0  0  0  0  0  0  0  0  0 46  0  0
  -13.6500   -1.6280   25.3870 C   0  0  1  0  0  0  0  0  0 43  0  0
  -13.1150   -0.3800   24.6450 C   0  0  0  0  0  0  0  0  0 44  0  0
  -15.4150   -3.4220   30.6950 C   0  0  2  0  0  0  0  0  0  6  0  0
  -14.9250   -3.7220   32.1100 C   0  0  0  0  0  0  0  0  0  7  0  0
  -15.9340   -4.6420   29.9320 C   0  0  1  0  0  0  0  0  0  8  0  0
  -17.1350   -5.0760   30.6160 O   0  0  0  0  0  0  0  0  0  9  0  0
  -17.3500   -6.4590   30.7860 C   0  0  2  0  0  0  0  0  0 10  0  0
  -18.5220   -6.8020   30.0420 O   0  0  0  0  0  0  0  0  0 19  0  0
  -19.7530   -6.2440   30.4920 C   0  0  1  0  0  0  0  0  0 17  0  0
  -20.8630   -6.7260   29.5480 C   0  0  0  0  0  0  0  0  0 18  0  0
  -19.9900   -6.7400   31.9030 C   0  0  2  0  0  0  0  0  0 15  0  0
  -21.2260   -6.2090   32.3990 O   0  0  0  0  0  0  0  0  0 16  0  0
  -18.8370   -6.4250   32.8790 C   0  0  2  0  0  0  0  0  0 12  0  0
  -19.0960   -7.1640   34.1960 C   0  0  0  0  0  0  0  0  0 13  0  0
  -18.8470   -5.0330   33.2060 O   0  0  0  0  0  0  0  0  0 14  0  0
  -17.4760   -6.8130   32.2770 C   0  0  0  0  0  0  0  0  0 11  0  0
  -16.1930   -4.3500   28.4290 C   0  0  2  0  0  0  0  0  0 20  0  0
  -17.5410   -3.6310   28.2030 C   0  0  0  0  0  0  0  0  0 21  0  0
  -16.0080   -5.6200   27.5810 C   0  0  2  0  0  0  0  0  0 22  0  0
  -14.5870   -5.8120   27.0140 C   0  0  2  0  0  0  0  0  0 35  0  0
  -14.4040   -7.2480   26.5320 C   0  0  0  0  0  0  0  0  0 36  0  0
  -13.6120   -5.6310   28.0680 O   0  0  0  0  0  0  0  0  0 37  0  0
  -14.4360   -4.8240   25.8280 C   0  0  0  0  0  0  0  0  0 38  0  0
  -13.0570   -4.2440   25.5430 C   0  0  1  0  0  0  0  0  0 39  0  0
  -12.1990   -5.2560   24.7690 C   0  0  0  0  0  0  0  0  0 40  0  0
  -13.1340   -2.9370   24.7880 C   0  0  0  0  0  0  0  0  0 41  0  0
  -12.7100   -2.9080   23.6560 O   0  0  0  0  0  0  0  0  0 42  0  0
  -16.8790   -5.6580   26.4560 O   0  0  0  0  0  0  0  0  0 23  0  0
  -17.9670   -6.5730   26.5900 C   0  0  2  0  0  0  0  0  0 24  0  0
  -17.5330   -7.9270   26.6810 O   0  0  0  0  0  0  0  0  0 25  0  0
  -18.6250   -8.8370   26.8470 C   0  0  2  0  0  0  0  0  0 26  0  0
  -18.0450  -10.2120   27.0580 C   0  0  0  0  0  0  0  0  0 27  0  0
  -19.5770   -8.7810   25.6460 C   0  0  0  0  0  0  0  0  0 28  0  0
  -20.0160   -7.3250   25.3790 C   0  0  2  0  0  0  0  0  0 29  0  0
  -20.8900   -7.0990   24.1860 N   0  0  0  0  0  0  0  0  0 30  0  0
  -22.1760   -7.7880   24.3760 C   0  0  0  0  0  0  0  0  0 31  0  0
  -20.3240   -7.4600   22.8740 C   0  0  0  0  0  0  0  0  0 32  0  0
  -18.7910   -6.4180   25.3100 C   0  0  1  0  0  0  0  0  0 33  0  0
  -19.2090   -5.0540   25.1640 O   0  0  0  0  0  0  0  0  0 34  0  0
  2  1  2  0
  3  2  1  0
  4  3  1  1
  5  4  1  0
  5  6  1  1
  7  4  1  0
  7  8  1  1
  9  7  1  0
  9 10  1  6
 11  9  1  0
 11 12  1  6
 13  2  1  0
 13 14  1  1
 15 13  1  0
 15 16  1  1
 17 16  1  1
 18 17  1  0
 19 18  1  0
 19 20  1  6
 21 19  1  0
 21 22  1  1
 23 21  1  0
 23 24  1  1
 25 23  1  0
 26 17  1  0
 26 23  1  0
 27 15  1  0
 27 28  1  1
 29 27  1  0
 30 29  1  0
 30 31  1  6
 32 30  1  0
 33 30  1  0
 34 33  1  0
 34 35  1  6
 36 34  1  0
 36 11  1  0
 36 37  2  0
 29 38  1  6
 39 38  1  6
 40 39  1  0
 41 40  1  0
 41 42  1  6
 43 41  1  0
 44 43  1  0
 44 45  1  6
 46 45  1  0
 47 45  1  0
 48 44  1  0
 48 39  1  0
 48 49  1  1
M  END
$$$$
