
     RDKit          3D

 36 40  0  0  0  0  0  0  0  0999 V2000
   23.6860    0.8450    3.6350 N   0  0  0  0  0  0  0  0  0 18  0  0
   23.3090   -0.4460    3.6220 C   0  0  0  0  0  0  0  0  0 22  0  0
   23.7670   -1.0600    4.7270 N   0  0  0  0  0  0  0  0  0 21  0  0
   24.4550   -0.1500    5.4440 C   0  0  0  0  0  0  0  0  0 20  0  0
   24.3960    1.0510    4.7510 C   0  0  0  0  0  0  0  0  0 19  0  0
   23.4230    1.8200    2.5910 C   0  0  0  0  0  0  0  0  0 17  0  0
   24.4630    1.5520    1.4980 C   0  0  2  0  0  0  0  0  0 16  0  0
   24.5300    2.6240    0.5780 O   0  0  0  0  0  0  0  0  0 31  0  0
   24.9540    2.0630   -0.6620 C   0  0  1  0  0  0  0  0  0 13  0  0
   24.5250    0.6140   -0.5960 C   0  0  0  0  0  0  0  0  0 14  0  0
   24.1020    0.4080    0.7460 O   0  0  0  0  0  0  0  0  0 15  0  0
   25.8370    1.2680    2.0240 C   0  0  0  0  0  0  0  0  0 23  0  0
   26.6000    2.2630    2.6220 C   0  0  0  0  0  0  0  0  0 29  0  0
   27.8660    1.9590    3.1030 C   0  0  0  0  0  0  0  0  0 28  0  0
   28.3520    0.6590    2.9510 C   0  0  0  0  0  0  0  0  0 26  0  0
   27.5810   -0.3210    2.3460 C   0  0  0  0  0  0  0  0  0 25  0  0
   26.3210   -0.0220    1.8800 C   0  0  0  0  0  0  0  0  0 24  0  0
   29.9630    0.2040    3.5150 Cl  0  0  0  0  0  0  0  0  0 27  0  0
   24.2700    2.7130   -1.8520 C   0  0  0  0  0  0  0  0  0 12  0  0
   22.8990    3.0560   -1.6610 O   0  0  0  0  0  0  0  0  0 11  0  0
   22.3610    3.8210   -2.6570 C   0  0  0  0  0  0  0  0  0 10  0  0
   21.3610    3.3050   -3.4600 C   0  0  0  0  0  0  0  0  0  9  0  0
   20.8190    4.0730   -4.4890 C   0  0  0  0  0  0  0  0  0  8  0  0
   21.2600    5.3720   -4.7410 C   0  0  0  0  0  0  0  0  0  7  0  0
   22.2900    5.8900   -3.9360 C   0  0  0  0  0  0  0  0  0 33  0  0
   22.8340    5.1210   -2.9010 C   0  0  0  0  0  0  0  0  0 32  0  0
   20.6990    6.1230   -5.8210 N   0  0  0  0  0  0  0  0  0  6  0  0
   19.3350    5.6630   -6.1490 C   0  0  0  0  0  0  0  0  0  5  0  0
   18.4270    6.8210   -6.5470 C   0  0  0  0  0  0  0  0  0  4  0  0
   19.1050    7.7910   -7.4280 N   0  0  0  0  0  0  0  0  0  3  0  0
   20.3690    8.3040   -6.8670 C   0  0  0  0  0  0  0  0  0 35  0  0
   20.7220    7.5750   -5.5760 C   0  0  0  0  0  0  0  0  0 34  0  0
   18.2160    8.8840   -7.6860 C   0  0  0  0  0  0  0  0  0  1  0  0
   17.7150    9.5320   -6.7670 O   0  0  0  0  0  0  0  0  0  2  0  0
   17.9000    9.2350   -9.1130 C   0  0  0  0  0  0  0  0  0  0  0  0
   25.9450    3.9000    2.7750 Cl  0  0  0  0  0  0  0  0  0 30  0  0
  2  1  1  0
  3  2  2  0
  4  3  1  0
  5  4  2  0
  5  1  1  0
  6  1  1  0
  7  6  1  1
  8  7  1  0
  9  8  1  0
 10  9  1  0
 11 10  1  0
 11  7  1  0
 12  7  1  0
 13 12  2  0
 14 13  1  0
 15 14  2  0
 16 15  1  0
 17 12  1  0
 17 16  2  0
 18 15  1  0
  9 19  1  6
 20 19  1  0
 21 20  1  0
 22 21  2  0
 23 22  1  0
 24 23  2  0
 25 24  1  0
 26 21  1  0
 26 25  2  0
 27 24  1  0
 28 27  1  0
 29 28  1  0
 30 29  1  0
 31 30  1  0
 32 31  1  0
 32 27  1  0
 33 30  1  0
 34 33  2  0
 35 33  1  0
 36 13  1  0
M  END
$$$$
