
     RDKit          3D

 21 22  0  0  0  0  0  0  0  0999 V2000
   44.4390   88.7170  129.2390 C   0  0  0  0  0  0  0  0  0 19  0  0
   43.0540   88.8650  129.1840 C   0  0  0  0  0  0  0  0  0 18  0  0
   42.3810   88.5430  128.0130 C   0  0  0  0  0  0  0  0  0 17  0  0
   43.1210   88.0780  126.9290 C   0  0  0  0  0  0  0  0  0 16  0  0
   44.4590   87.9530  127.0410 C   0  0  0  0  0  0  0  0  0 15  0  0
   45.1100   88.2670  128.1760 C   0  0  0  0  0  0  0  0  0 20  0  0
   46.5820   87.5970  126.7270 C   0  0  0  0  0  0  0  0  0 13  0  0
   46.4140   88.0460  127.9640 C   0  0  0  0  0  0  0  0  0 12  0  0
   47.5560   88.2480  128.9840 C   0  0  0  0  0  0  0  0  0 11  0  0
   48.6610   87.1840  128.7800 C   0  0  1  0  0  0  0  0  0  8  0  0
   49.9210   87.4980  129.6270 C   0  0  0  0  0  0  0  0  0  9  0  0
   48.2680   84.8200  128.2020 C   0  0  0  0  0  0  0  0  0  5  0  0
   47.6470   83.4730  128.6190 C   0  0  2  0  0  0  0  0  0  3  0  0
   46.4480   83.0990  127.7060 C   0  0  1  0  0  0  0  0  0  1  0  0
   45.4140   84.2320  127.6990 C   0  0  0  0  0  0  0  0  0  0  0  0
   46.9020   82.8010  126.2560 C   0  0  0  0  0  0  0  0  0  2  0  0
   45.3720   87.5400  126.1560 N   0  0  0  0  0  0  0  0  0 14  0  0
   48.1370   85.8330  129.0820 N   0  0  0  0  0  0  0  0  0  7  0  0
   48.8640   84.9280  127.1310 O   0  0  0  0  0  0  0  0  0  6  0  0
   47.2040   83.5540  129.9730 O   0  0  0  0  0  0  0  0  0  4  0  0
   49.6610   87.4250  131.0490 O   0  0  0  0  0  0  0  0  0 10  0  0
  2  1  2  0
  3  2  1  0
  4  3  2  0
  5  4  1  0
  6  5  2  0
  6  1  1  0
  8  7  2  0
  8  6  1  0
  9  8  1  0
 10  9  1  1
 11 10  1  0
 13 12  1  0
 14 13  1  0
 14 15  1  6
 16 14  1  0
 17  7  1  0
 17  5  1  0
 18 12  1  0
 18 10  1  0
 19 12  2  0
 13 20  1  1
 21 11  1  0
M  END
$$$$
