
     RDKit          3D

 20 22  0  0  0  0  0  0  0  0999 V2000
   21.9920   33.9550   74.6490 C   0  0  0  0  0  0  0  0  0  0  0  0
   23.1280   33.9950   75.6440 C   0  0  0  0  0  0  0  0  0  1  0  0
   23.1040   35.8710   77.0130 C   0  0  0  0  0  0  0  0  0  3  0  0
   22.4050   36.5430   78.1510 C   0  0  0  0  0  0  0  0  0  5  0  0
   22.4870   37.8690   78.5100 C   0  0  0  0  0  0  0  0  0  6  0  0
   21.5710   38.0700   79.5720 C   0  0  0  0  0  0  0  0  0  7  0  0
   21.2340   39.1950   80.3470 C   0  0  0  0  0  0  0  0  0  8  0  0
   20.2670   39.0690   81.3250 C   0  0  0  0  0  0  0  0  0  9  0  0
   19.9320   40.1600   82.2060 C   0  0  0  0  0  0  0  0  0 10  0  0
   18.7020   40.4030   82.8380 C   0  0  0  0  0  0  0  0  0 11  0  0
   18.5320   41.4920   83.7290 C   0  0  0  0  0  0  0  0  0 12  0  0
   20.6930   42.0910   83.4860 C   0  0  0  0  0  0  0  0  0 14  0  0
   20.9170   41.0860   82.5570 C   0  0  0  0  0  0  0  0  0 15  0  0
   19.6900   37.8210   81.5660 C   0  0  0  0  0  0  0  0  0 16  0  0
   20.0180   36.6940   80.8340 C   0  0  0  0  0  0  0  0  0 17  0  0
   20.9690   36.8470   79.8000 C   0  0  0  0  0  0  0  0  0 18  0  0
   19.5120   42.3000   84.0640 N   0  0  0  0  0  0  0  0  0 13  0  0
   21.4970   35.9460   78.9290 N   0  0  0  0  0  0  0  0  0 19  0  0
   22.6010   34.6300   76.8120 O   0  0  0  0  0  0  0  0  0  2  0  0
   23.8340   36.4460   76.2700 O   0  0  0  0  0  0  0  0  0  4  0  0
  1  2  1  1
  4  3  1  0
  4  5  2  0
  6  5  1  0
  7  6  2  0
  8  7  1  0
  9  8  1  0
  9 10  2  0
 11 10  1  0
 13 12  2  0
 13  9  1  0
 14  8  2  0
 15 14  1  0
 16 15  2  0
 16  6  1  0
 17 12  1  0
 17 11  2  0
 18 16  1  0
 18  4  1  0
  2 19  1  1
 19  3  1  0
  3 20  2  0
M  END
$$$$
