
     RDKit          3D

 25 27  0  0  0  0  0  0  0  0999 V2000
   19.2640   -6.8680   16.9030 F   0  0  0  0  0  0  0  0  0 24  0  0
   15.7470   -6.3690   14.9570 F   0  0  0  0  0  0  0  0  0  8  0  0
   22.0710   -9.0230   20.0330 F   0  0  0  0  0  0  0  0  0 21  0  0
   16.2200   -6.8850   19.7900 O   0  0  0  0  0  0  0  0  0 10  0  0
   17.9760   -4.4830   19.4370 N   0  0  0  0  0  0  0  0  0 12  0  0
   14.1630   -7.2380   18.1070 N   0  0  0  0  0  0  0  0  0  3  0  0
   18.9830   -3.6140   19.0280 N   0  0  0  0  0  0  0  0  0 16  0  0
   18.5530   -3.3760   21.1730 N   0  0  0  0  0  0  0  0  0 14  0  0
   12.5850   -6.2770   16.6450 N   0  0  0  0  0  0  0  0  0  5  0  0
   17.1210   -6.7490   18.7010 C   0  0  1  0  0  0  0  0  0  9  0  0
   16.5030   -7.5280   17.5380 C   0  0  1  0  0  0  0  0  0  1  0  0
   17.3500   -5.2600   18.3550 C   0  0  0  0  0  0  0  0  0 11  0  0
   18.4200   -7.3810   19.0720 C   0  0  0  0  0  0  0  0  0 17  0  0
   16.3360   -8.9820   17.9260 C   0  0  0  0  0  0  0  0  0  0  0  0
   15.1510   -7.0470   17.2230 C   0  0  0  0  0  0  0  0  0  2  0  0
   19.4910   -7.4140   18.0880 C   0  0  0  0  0  0  0  0  0 23  0  0
   18.6250   -7.9310   20.3120 C   0  0  0  0  0  0  0  0  0 18  0  0
   14.7990   -6.5480   15.8850 C   0  0  0  0  0  0  0  0  0  7  0  0
   20.7350   -7.8970   18.4400 C   0  0  0  0  0  0  0  0  0 22  0  0
   19.8490   -8.5030   20.6080 C   0  0  0  0  0  0  0  0  0 19  0  0
   17.6560   -4.2670   20.6960 C   0  0  0  0  0  0  0  0  0 13  0  0
   20.8950   -8.4760   19.6930 C   0  0  0  0  0  0  0  0  0 20  0  0
   13.4930   -6.1430   15.6630 C   0  0  0  0  0  0  0  0  0  6  0  0
   12.9130   -6.8320   17.8320 C   0  0  0  0  0  0  0  0  0  4  0  0
   19.3600   -2.9680   20.1490 C   0  0  0  0  0  0  0  0  0 15  0  0
  7  5  1  0
 10  4  1  1
 11 10  1  0
 12 10  1  0
 12  5  1  0
 13 10  1  0
 11 14  1  1
 15  6  2  0
 15 11  1  0
 16 13  2  0
 16  1  1  0
 17 13  1  0
 18  2  1  0
 18 15  1  0
 19 16  1  0
 20 17  2  0
 21  8  2  0
 21  5  1  0
 22 20  1  0
 22 19  2  0
 22  3  1  0
 23 18  2  0
 23  9  1  0
 24  9  2  0
 24  6  1  0
 25  8  1  0
 25  7  2  0
M  END
$$$$
