
     RDKit          3D

 24 26  0  0  0  0  0  0  0  0999 V2000
  -53.2600   53.6270  -31.6650 C   0  0  0  0  0  0  0  0  0  4  0  0
  -53.2630   53.7040  -33.0770 C   0  0  0  0  0  0  0  0  0 22  0  0
  -57.7360   50.8370  -32.0770 Cl  0  0  0  0  0  0  0  0  0 21  0  0
  -56.2090   54.0430  -28.4650 C   0  0  0  0  0  0  0  0  0 11  0  0
  -56.1950   52.9820  -29.3040 C   0  0  0  0  0  0  0  0  0 10  0  0
  -53.8700   56.0190  -31.5250 C   0  0  0  0  0  0  0  0  0  2  0  0
  -53.5630   54.7850  -30.9150 C   0  0  0  0  0  0  0  0  0  3  0  0
  -53.8800   56.1280  -32.8900 C   0  0  0  0  0  0  0  0  0  1  0  0
  -54.2540   57.6540  -33.5740 Cl  0  0  0  0  0  0  0  0  0  0  0  0
  -56.6340   49.4830  -32.0850 C   0  0  0  0  0  0  0  0  0 20  0  0
  -57.0180   48.2470  -32.6970 C   0  0  0  0  0  0  0  0  0 19  0  0
  -56.1150   47.1310  -32.7130 C   0  0  0  0  0  0  0  0  0 17  0  0
  -54.8500   47.2470  -32.1160 C   0  0  0  0  0  0  0  0  0 16  0  0
  -56.5450   45.6400  -33.4630 Cl  0  0  0  0  0  0  0  0  0 18  0  0
  -55.3570   53.7720  -27.4800 N   0  0  0  0  0  0  0  0  0 12  0  0
  -54.9210   50.7530  -29.3370 C   0  0  0  0  0  0  0  0  0  8  0  0
  -54.8730   50.8660  -30.8660 C   0  0  1  0  0  0  0  0  0  7  0  0
  -53.5150   51.1330  -31.4030 O   0  0  0  0  0  0  0  0  0  6  0  0
  -55.3450   49.5830  -31.4980 C   0  0  0  0  0  0  0  0  0 14  0  0
  -55.2940   52.0600  -28.7840 N   0  0  0  0  0  0  0  0  0  9  0  0
  -54.8120   52.5910  -27.6670 C   0  0  0  0  0  0  0  0  0 13  0  0
  -52.9300   52.3480  -30.8880 C   0  0  0  0  0  0  0  0  0  5  0  0
  -53.5780   54.9750  -33.6960 C   0  0  0  0  0  0  0  0  0 23  0  0
  -54.4650   48.4620  -31.5140 C   0  0  0  0  0  0  0  0  0 15  0  0
  2  1  2  0
  5  4  2  0
  7  1  1  0
  7  6  2  0
  8  6  1  0
  9  8  1  0
 10  3  1  0
 11 10  2  0
 12 11  1  0
 13 12  2  0
 14 12  1  0
 15  4  1  0
 17 16  1  1
 18 17  1  0
 19 17  1  0
 19 10  1  0
 20 16  1  0
 20  5  1  0
 21 20  1  0
 21 15  2  0
 22 18  1  0
 22  1  1  0
 23  2  1  0
 23  8  2  0
 24 13  1  0
 24 19  2  0
M  END
$$$$
