
     RDKit          3D

 17 19  0  0  0  0  0  0  0  0999 V2000
   63.0930   18.6800    7.5400 C   0  0  0  0  0  0  0  0  0 11  0  0
   62.7510   17.3300    7.6870 C   0  0  0  0  0  0  0  0  0 10  0  0
   63.7350   16.4090    7.9910 C   0  0  0  0  0  0  0  0  0  9  0  0
   65.1100   16.9280    8.0970 C   0  0  0  0  0  0  0  0  0 15  0  0
   65.3920   18.2710    7.9260 C   0  0  0  0  0  0  0  0  0 14  0  0
   69.4820   19.0200    8.3400 C   0  0  0  0  0  0  0  0  0  0  0  0
   65.8490   15.8650    8.3590 N   0  0  0  0  0  0  0  0  0  6  0  0
   65.1390   14.7200    8.4440 C   0  0  0  0  0  0  0  0  0  7  0  0
   63.8130   15.0630    8.2030 N   0  0  0  0  0  0  0  0  0  8  0  0
   62.1740   19.5870    7.2040 N   0  0  0  0  0  0  0  0  0 12  0  0
   69.0950   17.5660    8.5220 C   0  0  0  0  0  0  0  0  0  1  0  0
   67.7520   17.2590    8.3970 C   0  0  0  0  0  0  0  0  0 16  0  0
   64.4030   19.1770    7.6650 C   0  0  0  0  0  0  0  0  0 13  0  0
   68.1000   14.9710    8.8080 C   0  0  0  0  0  0  0  0  0  4  0  0
   67.1800   15.9940    8.5210 C   0  0  0  0  0  0  0  0  0  5  0  0
   69.4770   15.2420    8.9500 C   0  0  0  0  0  0  0  0  0  3  0  0
   69.9970   16.5400    8.8130 C   0  0  0  0  0  0  0  0  0  2  0  0
  2  1  2  0
  3  2  1  0
  4  3  2  0
  5  4  1  0
  7  4  1  0
  8  7  1  0
  9  8  2  0
  9  3  1  0
  1 10  1  0
 11  6  1  0
 12 11  2  0
 13  5  2  0
 13  1  1  0
 15 14  2  0
 15  7  1  0
 15 12  1  0
 16 14  1  0
 17 16  2  0
 17 11  1  0
M  END
$$$$
