
     RDKit          3D

 30 33  0  0  0  0  0  0  0  0999 V2000
   16.2880   43.5340   25.9460 O   0  0  0  0  0  0  0  0  0 20  0  0
   15.7220   44.6170   25.7970 C   0  0  0  0  0  0  0  0  0 19  0  0
   15.3210   45.3980   26.7630 N   0  0  0  0  0  0  0  0  0 21  0  0
   15.4410   45.2510   28.1110 C   0  0  0  0  0  0  0  0  0 22  0  0
   16.1350   44.2320   28.7100 C   0  0  0  0  0  0  0  0  0 23  0  0
   16.2350   44.1120   30.0870 C   0  0  0  0  0  0  0  0  0 24  0  0
   15.6370   44.9580   30.8530 N   0  0  0  0  0  0  0  0  0 25  0  0
   14.9320   45.9700   30.3240 C   0  0  0  0  0  0  0  0  0 26  0  0
   14.8180   46.1540   28.9230 C   0  0  0  0  0  0  0  0  0 27  0  0
   15.4270   45.0600   24.3870 C   0  0  2  0  0  0  0  0  0  8  0  0
   14.1920   44.4440   23.8800 N   0  0  0  0  0  0  0  0  0  7  0  0
   13.0940   45.1480   23.5580 C   0  0  0  0  0  0  0  0  0  5  0  0
   12.9480   46.3120   23.9000 O   0  0  0  0  0  0  0  0  0  6  0  0
   12.0590   44.5240   22.6150 C   0  0  2  0  0  0  0  0  0  4  0  0
   12.3450   44.9720   21.1720 C   0  0  0  0  0  0  0  0  0  3  0  0
   11.3970   44.2240   20.1880 C   0  0  0  0  0  0  0  0  0  2  0  0
    9.9710   44.7110   20.3610 C   0  0  1  0  0  0  0  0  0  1  0  0
    9.0420   44.0330   19.3390 C   0  0  0  0  0  0  0  0  0  0  0  0
    9.6540   44.3170   21.7810 C   0  0  0  0  0  0  0  0  0 29  0  0
   10.6170   44.9330   22.8170 C   0  0  0  0  0  0  0  0  0 28  0  0
   16.6860   44.7980   23.5200 C   0  0  0  0  0  0  0  0  0  9  0  0
   16.4990   45.4500   22.1640 C   0  0  0  0  0  0  0  0  0 10  0  0
   16.0320   44.8100   20.9090 C   0  0  0  0  0  0  0  0  0 18  0  0
   15.7850   43.4660   20.5850 C   0  0  0  0  0  0  0  0  0 17  0  0
   15.3890   43.1640   19.3040 C   0  0  0  0  0  0  0  0  0 16  0  0
   15.2600   44.1700   18.3110 C   0  0  0  0  0  0  0  0  0 15  0  0
   15.5330   45.5150   18.5540 C   0  0  0  0  0  0  0  0  0 14  0  0
   15.9100   45.8560   19.8630 C   0  0  0  0  0  0  0  0  0 13  0  0
   16.2360   46.9890   20.4610 N   0  0  0  0  0  0  0  0  0 12  0  0
   16.5160   46.8120   21.8020 C   0  0  0  0  0  0  0  0  0 11  0  0
  2  1  2  0
  3  2  1  0
  4  3  1  0
  5  4  2  0
  6  5  1  0
  7  6  2  0
  8  7  1  0
  9  8  2  0
  9  4  1  0
 10  2  1  0
 11 10  1  0
 12 11  1  0
 12 13  2  0
 14 12  1  1
 14 15  1  0
 16 15  1  0
 17 16  1  0
 17 18  1  6
 19 17  1  0
 20 19  1  0
 20 14  1  0
 10 21  1  6
 22 21  1  0
 23 22  1  0
 23 24  2  0
 25 24  1  0
 26 25  2  0
 27 26  1  0
 28 27  2  0
 28 23  1  0
 29 28  1  0
 30 29  1  0
 30 22  2  0
M  END
$$$$
