
     RDKit          3D

 24 26  0  0  0  0  0  0  0  0999 V2000
   21.7130   41.0400   -2.8510 O   0  0  0  0  0  0  0  0  0  6  0  0
   18.6390   42.6540   -0.7170 Cl  0  0  0  0  0  0  0  0  0 21  0  0
   20.6680   40.7300    3.9220 Cl  0  0  0  0  0  0  0  0  0 18  0  0
   19.9960   45.8580   -6.9340 Cl  0  0  0  0  0  0  0  0  0  0  0  0
   20.8100   40.2630   -2.0190 C   0  0  1  0  0  0  0  0  0  7  0  0
   20.6230   40.5960   -0.5510 C   0  0  0  0  0  0  0  0  0 14  0  0
   20.6210   40.7150    2.1900 C   0  0  0  0  0  0  0  0  0 17  0  0
   22.2450   42.3160   -2.5730 C   0  0  0  0  0  0  0  0  0  5  0  0
   19.4650   39.9230   -2.7060 C   0  0  0  0  0  0  0  0  0  8  0  0
   19.7460   41.5070    0.0890 C   0  0  0  0  0  0  0  0  0 20  0  0
   20.4870   39.0620   -4.9750 N   0  0  0  0  0  0  0  0  0 13  0  0
   21.4210   39.7680    0.2140 C   0  0  0  0  0  0  0  0  0 15  0  0
   21.6850   42.7040   -5.0300 C   0  0  0  0  0  0  0  0  0  3  0  0
   21.1970   44.3990   -3.4000 C   0  0  0  0  0  0  0  0  0 22  0  0
   18.8560   40.6020   -4.9420 C   0  0  0  0  0  0  0  0  0 10  0  0
   19.7720   41.5630    1.4790 C   0  0  0  0  0  0  0  0  0 19  0  0
   21.4430   39.8020    1.5790 C   0  0  0  0  0  0  0  0  0 16  0  0
   19.1860   40.3780   -6.2470 N   0  0  0  0  0  0  0  0  0 11  0  0
   21.1760   43.4860   -6.0600 C   0  0  0  0  0  0  0  0  0  2  0  0
   20.6970   45.2000   -4.4110 C   0  0  0  0  0  0  0  0  0 23  0  0
   20.1740   39.4220   -6.2700 C   0  0  0  0  0  0  0  0  0 12  0  0
   21.7040   43.1600   -3.7030 C   0  0  0  0  0  0  0  0  0  4  0  0
   19.6560   39.7950   -4.1930 C   0  0  0  0  0  0  0  0  0  9  0  0
   20.6750   44.7390   -5.7240 C   0  0  0  0  0  0  0  0  0  1  0  0
  5  1  1  0
  6  5  1  0
  7  3  1  0
  8  1  1  0
  5  9  1  6
 10  6  2  0
 10  2  1  0
  6 12  1  0
 16 10  1  0
 16  7  2  0
 17 12  2  0
 17  7  1  0
 18 15  1  0
 19 13  2  0
 20 14  1  0
 21 18  1  0
 21 11  2  0
 22 13  1  0
 22 14  2  0
 22  8  1  0
 23 15  2  0
 23 11  1  0
 23  9  1  0
 24 19  1  0
 24  4  1  0
 24 20  2  0
M  END
$$$$
