
     RDKit          3D

 27 30  0  0  0  0  0  0  0  0999 V2000
    5.2090   21.4830   10.3390 C   0  0  0  0  0  0  0  0  0 10  0  0
    3.9950   21.1670   10.9310 C   0  0  0  0  0  0  0  0  0 11  0  0
    3.8680   21.3080   12.3030 C   0  0  0  0  0  0  0  0  0 12  0  0
    7.5640   24.4670    3.8700 C   0  0  0  0  0  0  0  0  0 23  0  0
    8.6250   24.4650    2.7710 C   0  0  0  0  0  0  0  0  0 24  0  0
    8.5810   23.2900    1.7920 C   0  0  0  0  0  0  0  0  0 25  0  0
    8.2070   21.9240    2.3690 C   0  0  0  0  0  0  0  0  0 26  0  0
    6.7210   23.1950    3.9280 C   0  0  0  0  0  0  0  0  0 22  0  0
    5.3770   21.3310    8.9670 C   0  0  0  0  0  0  0  0  0  9  0  0
    6.0420   22.0300   12.5040 C   0  0  0  0  0  0  0  0  0 14  0  0
    7.6010   21.9630    3.7730 C   0  0  1  0  0  0  0  0  0 21  0  0
    1.0290   21.2770    1.2690 C   0  0  0  0  0  0  0  0  0  0  0  0
    1.6370   21.4220    2.6620 C   0  0  0  0  0  0  0  0  0  1  0  0
    3.8350   20.6640    3.0610 C   0  0  0  0  0  0  0  0  0  3  0  0
    4.3840   20.8250    4.4830 C   0  0  0  0  0  0  0  0  0  5  0  0
    3.5780   20.9850    5.6070 C   0  0  0  0  0  0  0  0  0  6  0  0
    4.4560   21.0860    6.7230 C   0  0  0  0  0  0  0  0  0  7  0  0
    4.2710   21.2640    8.1180 C   0  0  0  0  0  0  0  0  0  8  0  0
    6.2570   21.9150   11.1400 C   0  0  0  0  0  0  0  0  0 15  0  0
    6.6650   21.2030    8.4370 C   0  0  0  0  0  0  0  0  0 16  0  0
    6.8440   21.0310    7.0720 C   0  0  0  0  0  0  0  0  0 17  0  0
    5.7200   20.9710    6.2100 C   0  0  0  0  0  0  0  0  0 18  0  0
    6.8260   20.6570    3.9960 C   0  0  0  0  0  0  0  0  0 20  0  0
    4.8740   21.7300   13.0470 N   0  0  0  0  0  0  0  0  0 13  0  0
    5.6610   20.8170    4.8580 N   0  0  0  0  0  0  0  0  0 19  0  0
    2.4860   20.3290    2.8870 O   0  0  0  0  0  0  0  0  0  2  0  0
    4.5290   20.8210    2.1140 O   0  0  0  0  0  0  0  0  0  4  0  0
  2  1  2  0
  3  2  1  0
  4  5  1  1
  5  6  1  1
  6  7  1  1
  8  4  1  6
  9  1  1  0
 11  8  1  0
  7 11  1  6
 12 13  1  1
 15 14  1  0
 16 15  2  0
 17 16  1  0
 18 17  1  0
 18  9  2  0
 19  1  1  0
 19 10  2  0
 20  9  1  0
 21 20  2  0
 22 17  2  0
 22 21  1  0
 11 23  1  6
 24  3  2  0
 24 10  1  0
 25 15  1  0
 23 25  1  6
 25 22  1  0
 26 14  1  0
 13 26  1  6
 27 14  2  0
M  END
$$$$
