
     RDKit          3D

 28 31  0  0  0  0  0  0  0  0999 V2000
   24.7000    5.4300   56.5880 C   0  0  0  0  0  0  0  0  0  0  0  0
   15.8510    4.7420   62.1990 C   0  0  0  0  0  0  0  0  0 11  0  0
   14.5560    4.6400   62.6690 C   0  0  0  0  0  0  0  0  0 12  0  0
   15.2680    4.3760   64.8010 C   0  0  0  0  0  0  0  0  0 14  0  0
   16.5890    4.4800   64.4160 C   0  0  0  0  0  0  0  0  0 15  0  0
   19.2410    5.3670   63.5520 C   0  0  0  0  0  0  0  0  0 16  0  0
   20.5680    5.5360   63.2230 C   0  0  0  0  0  0  0  0  0 17  0  0
   20.9690    5.1470   61.9510 C   0  0  0  0  0  0  0  0  0 18  0  0
   23.3820    5.7510   62.0730 C   0  0  0  0  0  0  0  0  0 20  0  0
   24.0560    4.7840   63.0240 C   0  0  0  0  0  0  0  0  0 21  0  0
   25.0690    5.4340   63.9630 C   0  0  2  0  0  0  0  0  0 22  0  0
   23.9890    4.1800   56.9410 C   0  0  0  0  0  0  0  0  0  1  0  0
   25.8450    4.4140   64.7820 C   0  0  0  0  0  0  0  0  0 23  0  0
   26.7880    5.0500   65.7500 C   0  0  0  0  0  0  0  0  0 24  0  0
   25.3720    7.0150   65.8940 C   0  0  0  0  0  0  0  0  0 26  0  0
   24.4110    6.4170   64.9210 C   0  0  0  0  0  0  0  0  0 27  0  0
   23.2790    4.6190   59.1830 C   0  0  0  0  0  0  0  0  0  3  0  0
   22.1280    4.6920   60.0810 C   0  0  0  0  0  0  0  0  0  5  0  0
   20.8280    4.3200   59.8430 C   0  0  0  0  0  0  0  0  0  6  0  0
   20.0720    4.5900   61.0160 C   0  0  0  0  0  0  0  0  0  7  0  0
   18.7310    4.4320   61.3740 C   0  0  0  0  0  0  0  0  0  8  0  0
   18.3170    4.8020   62.6530 C   0  0  0  0  0  0  0  0  0  9  0  0
   16.9040    4.6700   63.0870 C   0  0  0  0  0  0  0  0  0 10  0  0
   14.2460    4.4460   63.9500 N   0  0  0  0  0  0  0  0  0 13  0  0
   22.2160    5.2010   61.3790 N   0  0  0  0  0  0  0  0  0 19  0  0
   26.0560    5.9550   66.6440 N   0  0  0  0  0  0  0  0  0 25  0  0
   22.9180    4.4110   57.9160 O   0  0  0  0  0  0  0  0  0  2  0  0
   24.4280    4.6910   59.5460 O   0  0  0  0  0  0  0  0  0  4  0  0
  3  2  2  0
  5  4  1  0
  7  6  2  0
  8  7  1  0
 10  9  1  0
 11 10  1  1
 12  1  1  0
 13 11  1  0
 14 13  1  0
 16 11  1  0
 16 15  1  0
 18 17  1  0
 19 18  2  0
 20 19  1  0
 20  8  2  0
 21 20  1  0
 22 21  2  0
 22  6  1  0
 23  2  1  0
 23 22  1  0
 23  5  2  0
 24  4  2  0
 24  3  1  0
 25  8  1  0
 25 18  1  0
 25  9  1  0
 26 14  1  0
 26 15  1  0
 27 17  1  0
 27 12  1  0
 28 17  2  0
M  END
$$$$
