
     RDKit          3D

 13 14  0  0  0  0  0  0  0  0999 V2000
   17.2190    5.8910   63.1490 C   0  0  0  0  0  0  0  0  0  4  0  0
   15.8790    5.8430   63.4940 C   0  0  0  0  0  0  0  0  0  3  0  0
   15.5040    5.4030   64.7530 C   0  0  0  0  0  0  0  0  0  2  0  0
   14.0270    5.3550   65.1320 C   0  0  0  0  0  0  0  0  0  1  0  0
   13.3740    4.2460   64.4620 N   0  0  0  0  0  0  0  0  0  0  0  0
   16.4660    5.0120   65.6690 C   0  0  0  0  0  0  0  0  0 12  0  0
   17.8070    5.0600   65.3240 C   0  0  0  0  0  0  0  0  0 11  0  0
   18.1820    5.5010   64.0650 C   0  0  0  0  0  0  0  0  0  5  0  0
   19.5270    5.5450   63.7330 C   0  0  0  0  0  0  0  0  0  6  0  0
   20.4290    4.8660   64.4180 N   0  0  0  0  0  0  0  0  0 10  0  0
   21.7220    4.9900   64.0050 N   0  0  0  0  0  0  0  0  0  9  0  0
   21.7060    6.0360   62.6900 S   0  0  0  0  0  0  0  0  0  8  0  0
   20.0040    6.3120   62.6810 C   0  0  0  0  0  0  0  0  0  7  0  0
  2  1  2  0
  3  2  1  0
  4  3  1  0
  4  5  1  6
  6  3  2  0
  7  6  1  0
  8  7  2  0
  8  1  1  0
  9  8  1  0
 10  9  1  0
 11 10  2  0
 12 11  1  0
 13 12  1  0
 13  9  2  0
M  END
$$$$
