
     RDKit          3D

 23 26  0  0  0  0  0  0  0  0999 V2000
   13.1890    5.8370   63.7310 C   0  0  0  0  0  0  0  0  0  0  0  0
   14.5540    6.0040   63.8010 C   0  0  0  0  0  0  0  0  0  1  0  0
   15.3100    5.1450   64.5660 C   0  0  0  0  0  0  0  0  0  2  0  0
   16.7950    5.2200   64.5830 C   0  0  0  0  0  0  0  0  0  3  0  0
   17.4790    5.9660   63.6040 C   0  0  0  0  0  0  0  0  0  4  0  0
   18.8680    5.9910   63.5460 C   0  0  0  0  0  0  0  0  0  5  0  0
   18.9070    4.3750   65.3990 C   0  0  0  0  0  0  0  0  0  7  0  0
   21.9960    5.6190   63.8560 C   0  0  0  0  0  0  0  0  0 11  0  0
   23.2110    6.0060   64.6810 C   0  0  0  0  0  0  0  0  0 12  0  0
   24.8750    7.7620   65.0630 C   0  0  0  0  0  0  0  0  0 18  0  0
   26.0480    6.8510   65.4050 C   0  0  0  0  0  0  0  0  0 17  0  0
   25.8880    5.8060   63.2590 C   0  0  0  0  0  0  0  0  0 15  0  0
   24.7180    6.7050   62.8940 C   0  0  0  0  0  0  0  0  0 14  0  0
   21.1220    4.0890   65.6860 C   0  0  0  0  0  0  0  0  0  9  0  0
   17.5150    4.3950   65.4460 C   0  0  0  0  0  0  0  0  0 19  0  0
   14.6370    4.1340   65.2290 C   0  0  0  0  0  0  0  0  0 20  0  0
   13.2590    4.0360   65.1100 C   0  0  0  0  0  0  0  0  0 21  0  0
   19.5730    5.1760   64.4440 C   0  0  0  0  0  0  0  0  0  6  0  0
   19.9130    3.6980   66.1640 C   0  0  0  0  0  0  0  0  0  8  0  0
   20.9300    4.9840   64.6330 N   0  0  0  0  0  0  0  0  0 10  0  0
   23.9640    7.1220   64.0890 N   0  0  0  0  0  0  0  0  0 13  0  0
   26.7910    6.4920   64.1910 N   0  0  0  0  0  0  0  0  0 16  0  0
   12.5430    4.8640   64.3600 N   0  0  0  0  0  0  0  0  0 22  0  0
  2  1  2  0
  3  2  1  0
  4  3  1  0
  4  5  2  0
  6  5  1  0
  9  8  1  0
 11 10  1  0
 13 12  1  0
 15  7  2  0
 15  4  1  0
 16  3  2  0
 17 16  1  0
 18  7  1  0
 18  6  2  0
 19  7  1  0
 19 14  2  0
 20 18  1  0
 20 14  1  0
  8 20  1  6
 13 21  1  1
 10 21  1  1
  9 21  1  1
 12 22  1  6
 11 22  1  1
 23 17  2  0
 23  1  1  0
M  END
$$$$
