
     RDKit          3D

 23 25  0  0  0  0  0  0  0  0999 V2000
   23.9120    5.1420   54.6490 C   0  0  0  0  0  0  0  0  0  0  0  0
   22.8060    6.7550   56.7350 C   0  0  0  0  0  0  0  0  0  3  0  0
   22.0220    7.0840   57.8290 C   0  0  0  0  0  0  0  0  0  4  0  0
   22.2910    6.5240   59.0690 C   0  0  0  0  0  0  0  0  0  5  0  0
   21.4350    6.8950   60.2790 C   0  0  0  0  0  0  0  0  0  6  0  0
   19.2670    6.3470   61.3600 C   0  0  0  0  0  0  0  0  0  8  0  0
   18.6490    7.0650   63.5670 C   0  0  0  0  0  0  0  0  0 19  0  0
   17.1130    5.7110   65.0330 C   0  0  0  0  0  0  0  0  0 12  0  0
   15.6620    5.3240   64.7690 C   0  0  0  0  0  0  0  0  0 13  0  0
   14.8940    6.0480   63.8780 C   0  0  0  0  0  0  0  0  0 14  0  0
   13.5780    5.6520   63.6770 C   0  0  0  0  0  0  0  0  0 15  0  0
   13.7850    3.9140   65.1580 C   0  0  0  0  0  0  0  0  0 17  0  0
   15.1100    4.2380   65.4240 C   0  0  0  0  0  0  0  0  0 18  0  0
   18.4910    5.2120   61.5160 C   0  0  0  0  0  0  0  0  0  9  0  0
   23.3600    5.6490   59.2170 C   0  0  0  0  0  0  0  0  0 21  0  0
   23.8670    5.8780   56.8780 C   0  0  0  0  0  0  0  0  0  2  0  0
   19.3440    7.2710   62.3870 C   0  0  0  0  0  0  0  0  0 20  0  0
   17.8700    5.9300   63.7250 C   0  0  0  0  0  0  0  0  0 11  0  0
   17.7950    5.0070   62.6980 C   0  0  0  0  0  0  0  0  0 10  0  0
   24.1470    5.3250   58.1200 C   0  0  0  0  0  0  0  0  0 22  0  0
   20.0180    6.5760   60.1370 N   0  0  0  0  0  0  0  0  0  7  0  0
   13.0400    4.6160   64.3080 N   0  0  0  0  0  0  0  0  0 16  0  0
   24.6500    5.5590   55.7660 O   0  0  0  0  0  0  0  0  0  1  0  0
  3  2  2  0
  4  3  1  0
  5  4  1  0
  8  9  1  1
 10  9  2  0
 11 10  1  0
 13 12  2  0
 13  9  1  0
 14  6  2  0
 15  4  2  0
 16  2  1  0
 17  7  2  0
 17  6  1  0
 18  8  1  0
 18  7  1  0
 19 14  1  0
 19 18  2  0
 20 16  2  0
 20 15  1  0
 21  6  1  0
  5 21  1  1
 22 12  1  0
 22 11  2  0
  1 23  1  1
 23 16  1  0
M  END
$$$$
