
     RDKit          3D

 49 55  0  0  0  0  0  0  0  0999 V2000
    7.8060   -4.5960    8.3230 C   0  0  0  0  0  0  0  0  0  9  0  0
    7.1100   -5.3690    7.3860 C   0  0  0  0  0  0  0  0  0  8  0  0
    9.0060   -4.2170    2.9430 C   0  0  0  0  0  0  0  0  0  0  0  0
    7.8200   -3.9210    2.0430 C   0  0  0  0  0  0  0  0  0  1  0  0
    6.5160   -4.5150    2.5830 C   0  0  1  0  0  0  0  0  0  2  0  0
    6.2900   -5.9130    2.0300 C   0  0  0  0  0  0  0  0  0  3  0  0
    6.6000   -4.5450    4.0610 N   0  0  0  0  0  0  0  0  0  4  0  0
    6.9570   -5.4270    4.9960 C   0  0  0  0  0  0  0  0  0 47  0  0
    7.3260   -6.6470    4.7790 O   0  0  0  0  0  0  0  0  0 48  0  0
    6.8200   -4.8410    6.1820 N   0  0  0  0  0  0  0  0  0  7  0  0
    6.4240   -3.5680    6.0400 C   0  0  0  0  0  0  0  0  0  6  0  0
    6.2620   -3.3440    4.7040 N   0  0  0  0  0  0  0  0  0  5  0  0
    8.1620   -5.0610    9.5880 C   0  0  0  0  0  0  0  0  0 10  0  0
    7.8280   -6.3480    9.9840 C   0  0  0  0  0  0  0  0  0 11  0  0
    7.1450   -7.1440    9.0770 C   0  0  0  0  0  0  0  0  0 45  0  0
    6.7950   -6.6650    7.8080 C   0  0  0  0  0  0  0  0  0 46  0  0
    8.1920   -6.8330   11.2600 N   0  0  0  0  0  0  0  0  0 12  0  0
    8.7560   -8.1560   11.4220 C   0  0  0  0  0  0  0  0  0 13  0  0
   10.2160   -7.8480   11.7300 C   0  0  0  0  0  0  0  0  0 14  0  0
   10.2940   -6.9300   12.8720 N   0  0  0  0  0  0  0  0  0 15  0  0
    9.5040   -5.7000   12.9110 C   0  0  0  0  0  0  0  0  0 43  0  0
    8.0790   -6.0410   12.4730 C   0  0  0  0  0  0  0  0  0 44  0  0
   11.1900   -7.2660   13.9110 C   0  0  0  0  0  0  0  0  0 16  0  0
   11.7840   -6.3150   14.7440 C   0  0  0  0  0  0  0  0  0 17  0  0
   12.6780   -6.7110   15.7460 C   0  0  0  0  0  0  0  0  0 18  0  0
   12.9830   -8.0600   15.9200 C   0  0  0  0  0  0  0  0  0 19  0  0
   12.3920   -8.9950   15.0800 C   0  0  0  0  0  0  0  0  0 41  0  0
   11.5100   -8.6020   14.0900 C   0  0  0  0  0  0  0  0  0 42  0  0
   13.8620   -8.5060   16.8920 O   0  0  0  0  0  0  0  0  0 20  0  0
   14.1840   -7.7650   18.0780 C   0  0  0  0  0  0  0  0  0 21  0  0
   15.3850   -8.4350   18.7270 C   0  0  1  0  0  0  0  0  0 22  0  0
   16.1370   -9.0510   17.5630 C   0  0  0  0  0  0  0  0  0 23  0  0
   17.2220   -8.1620   17.3410 O   0  0  0  0  0  0  0  0  0 24  0  0
   17.3920   -7.2960   18.4580 C   0  0  2  0  0  0  0  0  0 25  0  0
   16.2970   -7.5300   19.3560 O   0  0  0  0  0  0  0  0  0 40  0  0
   17.3550   -5.8600   17.9610 C   0  0  0  0  0  0  0  0  0 26  0  0
   17.9440   -4.9180   18.9000 N   0  0  0  0  0  0  0  0  0 27  0  0
   18.0620   -4.9010   20.2160 C   0  0  0  0  0  0  0  0  0 28  0  0
   18.6810   -3.7470   20.5420 N   0  0  0  0  0  0  0  0  0 29  0  0
   18.9690   -3.0690   19.4070 C   0  0  0  0  0  0  0  0  0 30  0  0
   18.5070   -3.7680   18.3500 N   0  0  0  0  0  0  0  0  0 31  0  0
   18.7450   -7.6980   18.9380 C   0  0  0  0  0  0  0  0  0 32  0  0
   19.8650   -7.7120   17.9600 C   0  0  0  0  0  0  0  0  0 38  0  0
   21.1330   -8.0940   18.3580 C   0  0  0  0  0  0  0  0  0 37  0  0
   21.3370   -8.4840   19.6710 C   0  0  0  0  0  0  0  0  0 35  0  0
   20.2840   -8.4950   20.5920 C   0  0  0  0  0  0  0  0  0 34  0  0
   18.9960   -8.1050   20.2290 C   0  0  0  0  0  0  0  0  0 33  0  0
   22.9860   -8.9780   20.1790 Cl  0  0  0  0  0  0  0  0  0 36  0  0
   19.5980   -7.2000   16.2570 Cl  0  0  0  0  0  0  0  0  0 39  0  0
  2  1  2  0
  4  3  1  0
  5  4  1  0
  5  6  1  6
  7  5  1  0
  8  7  1  0
  9  8  2  0
 10  8  1  0
 10  2  1  0
 11 10  1  0
 12  7  1  0
 12 11  2  0
 13  1  1  0
 14 13  2  0
 15 14  1  0
 16 15  2  0
 16  2  1  0
 17 14  1  0
 18 17  1  0
 19 18  1  0
 20 19  1  0
 21 20  1  0
 22 21  1  0
 22 17  1  0
 23 20  1  0
 24 23  2  0
 25 24  1  0
 26 25  2  0
 27 26  1  0
 28 27  2  0
 28 23  1  0
 29 26  1  0
 30 29  1  0
 31 30  1  6
 32 31  1  0
 33 32  1  0
 34 33  1  0
 35 31  1  0
 35 34  1  0
 34 36  1  6
 37 36  1  0
 38 37  1  0
 39 38  2  0
 40 39  1  0
 41 40  2  0
 41 37  1  0
 42 34  1  0
 43 42  2  0
 44 43  1  0
 45 44  2  0
 46 45  1  0
 47 46  2  0
 42 47  1  0
 48 45  1  0
 49 43  1  0
M  END
$$$$
