
     RDKit          3D

 16 17  0  0  0  0  0  0  0  0999 V2000
   20.5390    7.5320   60.6860 C   0  0  0  0  0  0  0  0  0  0  0  0
   20.3770    6.2570   62.6340 C   0  0  0  0  0  0  0  0  0  2  0  0
   19.5670    5.6050   63.7440 C   0  0  0  0  0  0  0  0  0  4  0  0
   20.1860    5.0110   64.8300 C   0  0  0  0  0  0  0  0  0  5  0  0
   19.4120    4.4310   65.8230 C   0  0  0  0  0  0  0  0  0  6  0  0
   18.0280    4.4490   65.7300 C   0  0  0  0  0  0  0  0  0  7  0  0
   17.4110    5.0530   64.6440 C   0  0  0  0  0  0  0  0  0  8  0  0
   16.0290    5.0720   64.5180 C   0  0  0  0  0  0  0  0  0  9  0  0
   15.4040    6.0070   63.7060 C   0  0  0  0  0  0  0  0  0 10  0  0
   14.0220    5.9730   63.6050 C   0  0  0  0  0  0  0  0  0 11  0  0
   13.8840    4.1730   65.0290 C   0  0  0  0  0  0  0  0  0 13  0  0
   15.2570    4.1420   65.1960 C   0  0  0  0  0  0  0  0  0 14  0  0
   18.1880    5.6220   63.6520 C   0  0  0  0  0  0  0  0  0 15  0  0
   13.3070    5.0740   64.2590 N   0  0  0  0  0  0  0  0  0 12  0  0
   19.6970    6.8500   61.5680 O   0  0  0  0  0  0  0  0  0  1  0  0
   21.5610    6.2710   62.6780 O   0  0  0  0  0  0  0  0  0  3  0  0
  3  2  1  0
  4  3  2  0
  5  4  1  0
  6  5  2  0
  7  6  1  0
  8  7  1  0
  9  8  2  0
 10  9  1  0
 12 11  2  0
 12  8  1  0
 13  7  2  0
 13  3  1  0
 14 11  1  0
 14 10  2  0
 15  2  1  0
  1 15  1  1
 16  2  2  0
M  END
$$$$
