
     RDKit          3D

 24 26  0  0  0  0  0  0  0  0999 V2000
   31.5640   14.5720   38.6590 C   0  0  0  0  0  0  0  0  0  0  0  0
   30.8250   12.0740   38.3440 C   0  0  0  0  0  0  0  0  0  2  0  0
   29.9970   10.7160   44.2910 C   0  0  0  0  0  0  0  0  0  7  0  0
   30.9780   13.1750   40.7470 C   0  0  0  0  0  0  0  0  0  3  0  0
   27.7650   10.2820   42.9550 C   0  0  0  0  0  0  0  0  0  8  0  0
   30.5600   11.8980   41.4480 C   0  0  0  0  0  0  0  0  0  4  0  0
   27.5750    9.1360   43.9320 C   0  0  0  0  0  0  0  0  0  9  0  0
   25.9150    7.5040   44.5480 C   0  0  0  0  0  0  0  0  0 11  0  0
   24.6840    6.8410   43.9750 C   0  0  0  0  0  0  0  0  0 12  0  0
   29.3560   12.2570   42.3040 C   0  0  0  0  0  0  0  0  0  5  0  0
   22.9160    5.3660   38.8990 C   0  0  0  0  0  0  0  0  0 18  0  0
   22.6690    6.4710   41.0870 C   0  0  0  0  0  0  0  0  0 20  0  0
   22.9710    4.0160   40.9750 C   0  0  0  0  0  0  0  0  0 16  0  0
   24.7410    6.8120   39.7910 C   0  0  0  0  0  0  0  0  0 21  0  0
   25.0320    4.3610   39.6850 C   0  0  0  0  0  0  0  0  0 23  0  0
   26.2200    8.6410   43.6840 N   0  0  0  0  0  0  0  0  0 10  0  0
   25.1620    6.6570   42.6080 N   0  0  0  0  0  0  0  0  0 13  0  0
   31.1390   13.2440   39.2600 C   0  0  0  0  0  0  0  0  0  1  0  0
   29.0110   11.0830   43.1780 C   0  0  0  0  0  0  0  0  0  6  0  0
   23.2240    6.6160   39.7020 C   0  0  1  0  0  0  0  0  0 19  0  0
   23.5400    4.1590   39.5770 C   0  0  2  0  0  0  0  0  0 17  0  0
   23.2900    5.2760   41.7790 C   0  0  1  0  0  0  0  0  0 15  0  0
   25.3780    5.5990   40.4780 C   0  0  2  0  0  0  0  0  0 22  0  0
   24.8050    5.4600   41.8640 C   0  0  1  0  0  0  0  0  0 14  0  0
  6  4  1  0
  7  5  1  0
  9  8  1  0
 10  6  1  0
 16  8  1  0
 16  7  1  0
 17  9  1  0
 18  4  2  3
 18  2  1  0
 18  1  1  0
 19  5  2  3
 19  3  1  0
 19 10  1  0
 20 11  1  6
 20 14  1  0
 20 12  1  0
 21 15  1  1
 21 13  1  0
 21 11  1  0
 22 13  1  6
 22 12  1  0
 23 15  1  6
 23 14  1  0
 24 22  1  0
 24 23  1  0
 24 17  1  1
M  END
$$$$
