
     RDKit          3D

 22 24  0  0  0  0  0  0  0  0999 V2000
   12.2930   47.3570  128.3350 O   0  0  0  0  0  0  0  0  0  0  0  0
   12.8790   47.9980  129.4860 C   0  0  2  0  0  0  0  0  0  1  0  0
   12.4360   47.2740  130.7600 C   0  0  0  0  0  0  0  0  0  2  0  0
   12.3710   49.4350  129.5570 C   0  0  0  0  0  0  0  0  0  8  0  0
   14.3990   47.8920  129.3120 C   0  0  0  0  0  0  0  0  0 14  0  0
   12.8980   45.9040  130.9160 N   0  0  0  0  0  0  0  0  0  3  0  0
   12.2880   44.7820  130.2620 C   0  0  0  0  0  0  0  0  0  4  0  0
   13.9320   45.4620  131.7610 N   0  0  0  0  0  0  0  0  0  7  0  0
   13.0290   43.8070  130.7490 N   0  0  0  0  0  0  0  0  0  5  0  0
   13.9920   44.1510  131.6260 C   0  0  0  0  0  0  0  0  0  6  0  0
   11.1040   49.4380  130.3060 N   0  0  0  0  0  0  0  0  0  9  0  0
    9.8920   49.4900  129.7480 C   0  0  0  0  0  0  0  0  0 10  0  0
   11.0150   49.3500  131.7020 N   0  0  0  0  0  0  0  0  0 13  0  0
    9.0840   49.4290  130.9450 N   0  0  0  0  0  0  0  0  0 11  0  0
    9.7760   49.3480  132.0820 C   0  0  0  0  0  0  0  0  0 12  0  0
   14.8630   47.2830  128.1190 C   0  0  0  0  0  0  0  0  0 15  0  0
   15.3450   48.3570  130.2850 C   0  0  0  0  0  0  0  0  0 20  0  0
   16.2570   47.1510  127.8800 C   0  0  0  0  0  0  0  0  0 16  0  0
   17.2100   47.5970  128.8320 C   0  0  0  0  0  0  0  0  0 17  0  0
   18.5420   47.4430  128.5360 F   0  0  0  0  0  0  0  0  0 18  0  0
   16.7530   48.2210  130.0360 C   0  0  0  0  0  0  0  0  0 19  0  0
   14.9200   48.9640  131.4450 F   0  0  0  0  0  0  0  0  0 21  0  0
  2  1  1  6
  3  2  1  0
  4  2  1  0
  5  2  1  0
  6  3  1  0
  7  6  1  0
  8  6  1  0
  9  7  2  0
 10  9  1  0
 10  8  2  0
 11  4  1  0
 12 11  1  0
 13 11  1  0
 14 12  2  0
 15 14  1  0
 15 13  2  0
 16  5  2  0
 17  5  1  0
 18 16  1  0
 19 18  2  0
 20 19  1  0
 21 17  2  0
 21 19  1  0
 22 17  1  0
M  END
$$$$
