
     RDKit          3D

 12 13  0  0  0  0  0  0  0  0999 V2000
   -5.1210   18.0580    1.5690 C   0  0  0  0  0  0  0  0  0  0  0  0
   -5.6420   19.0510    2.5040 C   0  0  0  0  0  0  0  0  0  1  0  0
   -5.1700   19.1510    3.7220 N   0  0  0  0  0  0  0  0  0 11  0  0
   -5.6190   20.1060    4.6020 C   0  0  0  0  0  0  0  0  0 10  0  0
   -5.0110   20.1330    5.8780 C   0  0  0  0  0  0  0  0  0  9  0  0
   -5.5280   21.0830    6.8080 C   0  0  0  0  0  0  0  0  0  8  0  0
   -6.6360   21.9470    6.4980 C   0  0  0  0  0  0  0  0  0  6  0  0
   -7.0960   22.8680    7.5530 N   0  0  0  0  0  0  0  0  0  7  0  0
   -7.2740   21.8590    5.2410 C   0  0  0  0  0  0  0  0  0  5  0  0
   -6.7340   20.9360    4.2640 C   0  0  0  0  0  0  0  0  0  4  0  0
   -7.2800   20.8200    2.9730 C   0  0  0  0  0  0  0  0  0  3  0  0
   -6.7090   19.8360    2.0940 C   0  0  0  0  0  0  0  0  0  2  0  0
  2  1  1  0
  3  2  2  0
  4  3  1  0
  4  5  2  0
  6  5  1  0
  7  6  2  0
  8  7  1  0
  9  7  1  0
 10  4  1  0
 10  9  2  0
 11 10  1  0
 12 11  2  0
 12  2  1  0
M  END
$$$$
