
     RDKit          3D

 13 14  0  0  0  0  0  0  0  0999 V2000
  -14.5370   16.1270    3.7740 O   0  0  0  0  0  0  0  0  0  0  0  0
  -13.4520   16.7600    3.4440 C   0  0  0  0  0  0  0  0  0  1  0  0
  -13.5830   17.9420    3.1480 O   0  0  0  0  0  0  0  0  0  2  0  0
  -12.1880   16.1580    3.5550 C   0  0  0  0  0  0  0  0  0  3  0  0
  -10.9530   16.3740    2.9710 C   0  0  0  0  0  0  0  0  0  7  0  0
  -10.4690   17.1840    1.9280 C   0  0  0  0  0  0  0  0  0  8  0  0
  -11.2440   17.8830    1.2100 O   0  0  0  0  0  0  0  0  0  9  0  0
   -9.0510   17.2780    1.6700 C   0  0  0  0  0  0  0  0  0 10  0  0
   -8.4180   15.9210    1.6810 C   0  0  0  0  0  0  0  0  0 11  0  0
   -8.6780   15.3290    3.1070 C   0  0  0  0  0  0  0  0  0 12  0  0
  -10.0640   15.4510    3.4780 C   0  0  0  0  0  0  0  0  0  6  0  0
  -10.6520   14.7020    4.3410 O   0  0  0  0  0  0  0  0  0  5  0  0
  -12.0890   15.1790    4.4910 C   0  0  0  0  0  0  0  0  0  4  0  0
  2  1  2  0
  3  2  1  0
  4  2  1  0
  5  4  1  0
  5  6  1  0
  7  6  2  0
  8  6  1  0
  9  8  1  0
 10  9  1  0
 11  5  2  0
 11 10  1  0
 12 11  1  0
  4 13  2  0
 13 12  1  0
M  END
$$$$
