
     RDKit          3D

 20 22  0  0  0  0  0  0  0  0999 V2000
   -9.8660  -18.3790   -1.2280 C   0  0  0  0  0  0  0  0  0 16  0  0
   -9.1580  -19.0420   -0.2310 C   0  0  0  0  0  0  0  0  0 15  0  0
   -8.8840  -20.3990   -0.3500 C   0  0  0  0  0  0  0  0  0 14  0  0
   -9.3140  -21.0970   -1.4640 C   0  0  0  0  0  0  0  0  0 13  0  0
  -10.0190  -20.4380   -2.4600 C   0  0  0  0  0  0  0  0  0 12  0  0
  -10.2710  -19.0790   -2.3500 C   0  0  0  0  0  0  0  0  0 11  0  0
  -10.9750  -18.4420   -3.3190 O   0  0  0  0  0  0  0  0  0 10  0  0
  -10.7260  -17.1030   -3.4340 C   0  0  0  0  0  0  0  0  0  9  0  0
   -9.5850  -16.4160   -3.3770 C   0  0  0  0  0  0  0  0  0  8  0  0
   -9.9010  -15.1160   -3.5460 N   0  0  0  0  0  0  0  0  0  7  0  0
  -11.1220  -14.9890   -3.7260 N   0  0  0  0  0  0  0  0  0  6  0  0
  -11.7190  -16.1850   -3.6380 C   0  0  0  0  0  0  0  0  0  5  0  0
  -13.0550  -16.5450   -3.7930 C   0  0  0  0  0  0  0  0  0  4  0  0
  -13.4560  -17.8780   -3.9380 C   0  0  0  0  0  0  0  0  0  3  0  0
  -14.8110  -18.1740   -4.1420 C   0  0  0  0  0  0  0  0  0  2  0  0
  -15.7390  -17.1360   -4.2050 C   0  0  0  0  0  0  0  0  0  1  0  0
  -17.0630  -17.3670   -4.4050 O   0  0  0  0  0  0  0  0  0  0  0  0
  -15.3230  -15.8240   -4.0660 C   0  0  0  0  0  0  0  0  0 19  0  0
  -13.9870  -15.5280   -3.8940 C   0  0  0  0  0  0  0  0  0 17  0  0
  -13.5950  -14.2330   -3.7560 O   0  0  0  0  0  0  0  0  0 18  0  0
  2  1  2  0
  3  2  1  0
  4  3  2  0
  5  4  1  0
  6  5  2  0
  6  1  1  0
  6  7  1  0
  8  7  1  0
  9  8  2  0
 10  9  1  0
 11 10  1  0
 12 11  2  0
 12  8  1  0
 13 12  1  0
 13 14  2  0
 15 14  1  0
 16 15  2  0
 17 16  1  0
 18 16  1  0
 19 13  1  0
 19 18  2  0
 19 20  1  0
M  END
$$$$
