
     RDKit          3D

 23 25  0  0  0  0  0  0  0  0999 V2000
    9.0080   21.5150   -0.6690 O   0  0  0  0  0  0  0  0  0  0  0  0
    8.7590   20.3560   -0.7260 C   0  0  0  0  0  0  0  0  0  1  0  0
    9.7720   19.3150   -1.1580 C   0  0  2  0  0  0  0  0  0 14  0  0
    9.9240   19.2140   -2.7530 C   0  0  0  0  0  0  0  0  0 15  0  0
   11.1330   18.3700   -3.1060 C   0  0  0  0  0  0  0  0  0 16  0  0
   11.0520   16.9390   -3.2150 C   0  0  0  0  0  0  0  0  0 17  0  0
   12.1130   16.1430   -3.4800 C   0  0  0  0  0  0  0  0  0 18  0  0
   13.4160   16.7350   -3.6820 C   0  0  0  0  0  0  0  0  0 19  0  0
   14.4520   15.9550   -3.9020 O   0  0  0  0  0  0  0  0  0 20  0  0
   13.5500   18.1670   -3.6410 C   0  0  0  0  0  0  0  0  0 21  0  0
   12.3840   19.0030   -3.3870 C   0  0  0  0  0  0  0  0  0 22  0  0
    9.5160   17.9510   -0.5850 N   0  0  0  0  0  0  0  0  0 13  0  0
    8.1210   17.5530   -0.7540 C   0  0  0  0  0  0  0  0  0 12  0  0
    6.9350   18.6320   -0.4410 C   0  0  1  0  0  0  0  0  0  3  0  0
    7.5160   20.0330   -0.4010 N   0  0  0  0  0  0  0  0  0  2  0  0
    5.8150   18.6530   -1.5940 C   0  0  0  0  0  0  0  0  0  4  0  0
    5.3740   17.2850   -2.0290 C   0  0  0  0  0  0  0  0  0  5  0  0
    4.6350   16.4930   -1.2140 C   0  0  0  0  0  0  0  0  0  6  0  0
    4.1740   15.1610   -1.6090 C   0  0  0  0  0  0  0  0  0  7  0  0
    4.4990   14.7250   -2.8850 C   0  0  0  0  0  0  0  0  0  8  0  0
    4.0010   13.4650   -3.1560 O   0  0  0  0  0  0  0  0  0  9  0  0
    5.2480   15.4570   -3.7710 C   0  0  0  0  0  0  0  0  0 10  0  0
    5.6650   16.7410   -3.3220 C   0  0  0  0  0  0  0  0  0 11  0  0
  2  1  2  0
  3  2  1  0
  3  4  1  6
  5  4  1  0
  6  5  2  0
  7  6  1  0
  8  7  2  0
  9  8  1  0
 10  8  1  0
 11 10  2  0
 11  5  1  0
 12  3  1  0
 13 12  1  0
 14 13  1  0
 15 14  1  0
 15  2  1  0
 14 16  1  6
 17 16  1  0
 18 17  2  0
 19 18  1  0
 20 19  2  0
 21 20  1  0
 22 20  1  0
 23 22  2  0
 23 17  1  0
M  END
$$$$
