
     RDKit          3D

 19 21  0  0  0  0  0  0  0  0999 V2000
   -6.9710   22.9690    7.5010 N   0  0  0  0  0  0  0  0  0  0  0  0
   -6.3800   21.9400    6.6540 C   0  0  0  0  0  0  0  0  0  1  0  0
   -5.3020   21.2160    7.0920 C   0  0  0  0  0  0  0  0  0  2  0  0
   -4.7520   20.2300    6.2940 C   0  0  0  0  0  0  0  0  0  3  0  0
   -5.2850   19.9710    5.0550 C   0  0  0  0  0  0  0  0  0  4  0  0
   -6.3780   20.7000    4.6030 C   0  0  0  0  0  0  0  0  0  5  0  0
   -6.9460   21.6730    5.4200 C   0  0  0  0  0  0  0  0  0 18  0  0
   -7.0080   20.3560    3.2610 C   0  0  0  0  0  0  0  0  0  6  0  0
   -6.9630   19.0180    2.8850 C   0  0  0  0  0  0  0  0  0 17  0  0
   -7.5360   18.5740    1.7010 C   0  0  0  0  0  0  0  0  0 10  0  0
   -8.1950   19.4770    0.8910 C   0  0  0  0  0  0  0  0  0  9  0  0
   -8.2580   20.8160    1.2640 C   0  0  0  0  0  0  0  0  0  8  0  0
   -7.6790   21.2600    2.4520 C   0  0  0  0  0  0  0  0  0  7  0  0
   -7.4620   17.0760    1.3820 C   0  0  0  0  0  0  0  0  0 11  0  0
   -6.3520   16.2020    1.3030 C   0  0  0  0  0  0  0  0  0 15  0  0
   -6.8270   14.9990    1.0630 N   0  0  0  0  0  0  0  0  0 14  0  0
   -8.1510   15.0100    0.9980 N   0  0  0  0  0  0  0  0  0 13  0  0
   -8.5840   16.2350    1.1930 C   0  0  0  0  0  0  0  0  0 12  0  0
   -4.9550   16.5420    1.4330 N   0  0  0  0  0  0  0  0  0 16  0  0
  2  1  1  0
  3  2  2  0
  4  3  1  0
  5  4  2  0
  6  5  1  0
  7  6  2  0
  7  2  1  0
  8  6  1  0
  8  9  2  0
 10  9  1  0
 11 10  2  0
 12 11  1  0
 13 12  2  0
 13  8  1  0
 14 10  1  0
 15 14  2  0
 16 15  1  0
 17 16  1  0
 18 17  2  0
 14 18  1  0
 19 15  1  0
M  END
$$$$
