
     RDKit          3D

 27 30  0  0  0  0  0  0  0  0999 V2000
   12.6940  -16.9680    4.1340 C   0  0  0  0  0  0  0  0  0 11  0  0
   12.8130  -18.3500    4.1810 C   0  0  0  0  0  0  0  0  0 12  0  0
   14.0660  -18.9380    4.2590 C   0  0  0  0  0  0  0  0  0 13  0  0
   15.2030  -18.1470    4.3000 C   0  0  0  0  0  0  0  0  0 14  0  0
   15.0870  -16.7690    4.2650 C   0  0  0  0  0  0  0  0  0 16  0  0
   13.8340  -16.1840    4.1870 C   0  0  0  0  0  0  0  0  0 17  0  0
    8.8110  -18.9190    4.3410 C   0  0  0  0  0  0  0  0  0  7  0  0
    7.5140  -20.7880    5.1500 C   0  0  0  0  0  0  0  0  0  5  0  0
    5.8980  -21.8650    7.1120 C   0  0  0  0  0  0  0  0  0  2  0  0
    5.4320  -20.8180    6.3360 C   0  0  0  0  0  0  0  0  0  3  0  0
   11.3500  -16.2720    4.0850 C   0  0  0  0  0  0  0  0  0 10  0  0
   10.0770  -16.7830    3.7610 C   0  0  0  0  0  0  0  0  0  9  0  0
    9.1720  -15.7640    3.8970 C   0  0  0  0  0  0  0  0  0 20  0  0
    9.7020  -18.1960    3.3730 C   0  0  0  0  0  0  0  0  0  8  0  0
   10.1100  -18.8160    2.2420 C   0  0  0  0  0  0  0  0  0 22  0  0
    9.6620  -20.2420    1.9750 C   0  0  0  0  0  0  0  0  0 23  0  0
    8.4050  -20.1720    4.1040 C   0  0  0  0  0  0  0  0  0  6  0  0
    7.9790  -21.8300    5.9260 C   0  0  0  0  0  0  0  0  0 26  0  0
    7.1700  -22.3740    6.9030 C   0  0  0  0  0  0  0  0  0  1  0  0
    7.6670  -23.4460    7.6910 N   0  0  0  0  0  0  0  0  0  0  0  0
    8.4360  -22.2080    2.6130 O   0  0  0  0  0  0  0  0  0 25  0  0
   16.4780  -18.7380    4.3770 O   0  0  0  0  0  0  0  0  0 15  0  0
    9.8590  -14.6210    4.2900 N   0  0  0  0  0  0  0  0  0 19  0  0
   11.1950  -14.9500    4.4070 N   0  0  0  0  0  0  0  0  0 18  0  0
    7.7680  -15.8400    3.6660 N   0  0  0  0  0  0  0  0  0 21  0  0
    8.8570  -20.8870    2.8520 C   0  0  0  0  0  0  0  0  0 24  0  0
    6.2480  -20.2710    5.3590 C   0  0  0  0  0  0  0  0  0  4  0  0
  2  1  2  0
  3  2  1  0
  4  3  2  0
  5  4  1  0
  6  5  2  0
  6  1  1  0
 10  9  2  0
 11  1  1  0
 12 11  1  0
 13 12  2  0
 14 12  1  0
 14  7  2  0
 15 14  1  0
 16 15  2  0
 17  8  1  0
 17  7  1  0
 18  8  1  0
 19 18  2  0
 19  9  1  0
 20 19  1  0
 22  4  1  0
 23 13  1  0
 24 23  1  0
 24 11  2  0
 25 13  1  0
 26 21  1  0
 26 17  2  0
 26 16  1  0
 27 10  1  0
 27  8  2  0
M  END
$$$$
