
     RDKit          3D

 27 31  0  0  0  0  0  0  0  0999 V2000
   -9.2960   15.2130    3.9670 C   0  0  0  0  0  0  0  0  0 21  0  0
   -9.4410   11.9990    2.4050 C   0  0  0  0  0  0  0  0  0 24  0  0
   -7.9610   13.1740    3.4050 C   0  0  0  0  0  0  0  0  0 26  0  0
   -9.7050   17.7750    1.9220 C   0  0  0  0  0  0  0  0  0  9  0  0
   -9.6750   19.1760    1.7890 C   0  0  0  0  0  0  0  0  0  8  0  0
   -8.6240   19.4700    0.9630 C   0  0  0  0  0  0  0  0  0  3  0  0
  -10.4630   20.2000    2.3270 C   0  0  0  0  0  0  0  0  0  7  0  0
   -9.1220   21.8350    1.1470 C   0  0  0  0  0  0  0  0  0  5  0  0
  -14.0840   16.7980    3.8210 C   0  0  0  0  0  0  0  0  0 13  0  0
  -14.5080   18.1010    4.1250 C   0  0  0  0  0  0  0  0  0 14  0  0
  -15.8380   18.3190    4.3990 C   0  0  0  0  0  0  0  0  0 15  0  0
  -16.7570   17.2410    4.4160 C   0  0  0  0  0  0  0  0  0 16  0  0
  -16.3050   15.9630    4.1120 C   0  0  0  0  0  0  0  0  0 17  0  0
  -14.9550   15.7410    3.8600 C   0  0  0  0  0  0  0  0  0 18  0  0
  -11.8650   15.7050    4.1360 C   0  0  0  0  0  0  0  0  0 19  0  0
  -10.6040   15.9240    3.6370 C   0  0  0  0  0  0  0  0  0 20  0  0
  -10.0380   13.1610    2.7990 C   0  0  0  0  0  0  0  0  0 23  0  0
  -10.7390   17.0390    2.7590 C   0  0  0  0  0  0  0  0  0 10  0  0
   -8.6530   17.3200    1.1390 C   0  0  0  0  0  0  0  0  0  1  0  0
   -8.3670   20.8330    0.6300 C   0  0  0  0  0  0  0  0  0  4  0  0
  -10.1860   21.5380    2.0110 C   0  0  0  0  0  0  0  0  0  6  0  0
  -12.6910   16.6200    3.5850 N   0  0  0  0  0  0  0  0  0 12  0  0
   -9.1240   13.8590    3.4100 N   0  0  0  0  0  0  0  0  0 22  0  0
   -8.1740   11.9760    2.8150 N   0  0  0  0  0  0  0  0  0 25  0  0
   -8.0300   18.3300    0.5740 N   0  0  0  0  0  0  0  0  0  2  0  0
  -12.0020   17.4540    2.7580 N   0  0  0  0  0  0  0  0  0 11  0  0
   -8.1810   15.6740    0.8020 Cl  0  0  0  0  0  0  0  0  0  0  0  0
  5  4  1  0
  6  5  1  0
  7  5  2  0
 10  9  2  0
 11 10  1  0
 12 11  2  0
 13 12  1  0
 14 13  2  0
 14  9  1  0
 16 15  2  0
 16  1  1  0
 17  2  2  0
 18 16  1  0
 18  4  1  0
 19  4  2  0
 20  6  2  0
 20  8  1  0
 21  7  1  0
 21  8  2  0
 22 15  1  0
  9 22  1  0
 23 17  1  0
 23  3  1  0
  1 23  1  1
 24  3  2  0
 24  2  1  0
 25 19  1  0
 25  6  1  0
 26 22  1  0
 26 18  2  0
 19 27  1  0
M  END
$$$$
