
     RDKit          3D

 27 30  0  0  0  0  0  0  0  0999 V2000
   -5.4180   14.5780    2.9550 C   0  0  0  0  0  0  0  0  0  5  0  0
  -15.3410   14.3730    3.3200 C   0  0  0  0  0  0  0  0  0 14  0  0
  -17.6460   14.9250    3.8370 C   0  0  0  0  0  0  0  0  0 16  0  0
  -11.8000   17.2850    2.9560 C   0  0  0  0  0  0  0  0  0 20  0  0
  -11.0440   18.3830    2.4190 C   0  0  0  0  0  0  0  0  0 21  0  0
  -10.2460   20.6880    2.4000 C   0  0  0  0  0  0  0  0  0 23  0  0
   -9.6320   19.3030    0.6450 C   0  0  0  0  0  0  0  0  0 25  0  0
   -9.9980   15.5090    3.8230 C   0  0  0  0  0  0  0  0  0  1  0  0
   -7.4430   15.7940    3.9840 C   0  0  0  0  0  0  0  0  0  3  0  0
   -6.7420   15.0220    2.8490 C   0  0  0  0  0  0  0  0  0  4  0  0
   -7.4160   14.7040    1.6570 C   0  0  0  0  0  0  0  0  0  9  0  0
   -6.7590   13.9870    0.6330 C   0  0  0  0  0  0  0  0  0  8  0  0
   -4.8160   13.8580    1.8920 C   0  0  0  0  0  0  0  0  0  6  0  0
  -11.3600   16.0000    3.5580 C   0  0  0  0  0  0  0  0  0 10  0  0
  -12.5390   15.3160    3.8520 C   0  0  0  0  0  0  0  0  0 11  0  0
  -14.9790   15.7120    3.5880 C   0  0  0  0  0  0  0  0  0 13  0  0
  -16.6730   13.9840    3.4440 C   0  0  0  0  0  0  0  0  0 15  0  0
  -17.2790   16.2500    4.0980 C   0  0  0  0  0  0  0  0  0 17  0  0
  -15.9540   16.6500    3.9720 C   0  0  0  0  0  0  0  0  0 18  0  0
  -10.9920   19.6550    3.0140 C   0  0  0  0  0  0  0  0  0 22  0  0
  -10.3540   18.2240    1.1990 C   0  0  0  0  0  0  0  0  0 26  0  0
   -8.8090   16.2780    3.7240 N   0  0  0  0  0  0  0  0  0  2  0  0
   -5.4740   13.5660    0.7430 N   0  0  0  0  0  0  0  0  0  7  0  0
  -13.6460   16.0930    3.4650 N   0  0  0  0  0  0  0  0  0 12  0  0
  -13.1750   17.2800    2.9260 N   0  0  0  0  0  0  0  0  0 19  0  0
   -9.5690   20.5240    1.2250 N   0  0  0  0  0  0  0  0  0 24  0  0
   -9.8670   14.3140    4.1540 O   0  0  0  0  0  0  0  0  0  0  0  0
  5  4  1  0
 10  9  1  0
 10  1  2  0
 11 10  1  0
 12 11  2  0
 13  1  1  0
 14  4  1  0
 14  8  1  0
 15 14  2  0
 16  2  2  0
 17  3  2  0
 17  2  1  0
 18  3  1  0
 19 18  2  0
 19 16  1  0
 20  5  1  0
 20  6  2  0
 21  5  2  0
 21  7  1  0
  9 22  1  6
 22  8  1  0
 23 12  1  0
 23 13  2  0
 24 16  1  0
 24 15  1  0
 25 24  1  0
 25  4  2  0
 26  7  2  0
 26  6  1  0
 27  8  2  0
M  END
$$$$
