
     RDKit          3D

 25 27  0  0  0  0  0  0  0  0999 V2000
  -11.6620   15.0570    4.2600 C   0  0  0  0  0  0  0  0  0  0  0  0
  -11.9530   16.5220    3.8840 C   0  0  0  0  0  0  0  0  0  1  0  0
  -10.8690   17.3320    3.5300 C   0  0  0  0  0  0  0  0  0  2  0  0
  -11.1340   18.6500    3.2190 C   0  0  0  0  0  0  0  0  0  3  0  0
  -10.0230   19.5980    2.7630 C   0  0  0  0  0  0  0  0  0  4  0  0
   -9.9210   19.5090    1.2160 C   0  0  1  0  0  0  0  0  0  5  0  0
   -8.2240   17.7600    0.3950 C   0  0  0  0  0  0  0  0  0  7  0  0
   -7.2780   18.9020    0.0810 C   0  0  2  0  0  0  0  0  0  9  0  0
   -6.0500   18.8120    0.9670 C   0  0  0  0  0  0  0  0  0 10  0  0
   -6.3220   18.8060    2.4400 C   0  0  0  0  0  0  0  0  0 11  0  0
   -6.3010   19.9750    3.2080 C   0  0  0  0  0  0  0  0  0 12  0  0
   -6.5210   19.9960    4.5630 C   0  0  0  0  0  0  0  0  0 13  0  0
   -6.7980   18.8250    5.1860 C   0  0  0  0  0  0  0  0  0 14  0  0
   -6.8220   17.6790    4.4280 C   0  0  0  0  0  0  0  0  0 16  0  0
   -6.5810   17.6660    3.0550 C   0  0  0  0  0  0  0  0  0 17  0  0
   -9.0740   20.6480    0.7390 C   0  0  0  0  0  0  0  0  0 19  0  0
  -12.3810   19.1170    3.3360 C   0  0  0  0  0  0  0  0  0 21  0  0
  -13.4530   18.3520    3.6740 C   0  0  0  0  0  0  0  0  0 22  0  0
  -13.2190   16.9830    3.9580 C   0  0  0  0  0  0  0  0  0 23  0  0
   -9.5240   18.1120    0.8980 N   0  0  0  0  0  0  0  0  0  6  0  0
   -7.7740   20.2930    0.1690 N   0  0  0  0  0  0  0  0  0 18  0  0
   -7.9300   16.6820    0.1830 O   0  0  0  0  0  0  0  0  0  8  0  0
   -7.0110   18.7730    6.5870 O   0  0  0  0  0  0  0  0  0 15  0  0
   -9.4570   21.7490    0.7890 O   0  0  0  0  0  0  0  0  0 20  0  0
  -14.2440   16.1340    4.3190 O   0  0  0  0  0  0  0  0  0 24  0  0
  2  1  1  0
  3  2  2  0
  4  3  1  0
  5  4  1  0
  6  5  1  1
  8  7  1  0
  8  9  1  1
 10  9  1  0
 11 10  2  0
 12 11  1  0
 13 12  2  0
 14 13  1  0
 15 14  2  0
 15 10  1  0
 16  6  1  0
 17  4  2  0
 18 17  1  0
 19 18  2  0
 19  2  1  0
 20  7  1  0
 20  6  1  0
 21 16  1  0
 21  8  1  0
  7 22  2  0
 23 13  1  0
 24 16  2  0
 25 19  1  0
M  END
$$$$
