
     RDKit          3D

 25 27  0  0  0  0  0  0  0  0999 V2000
   -6.8650   18.2050  269.1190 C   0  0  0  0  0  0  0  0  0  8  0  0
   -6.7540   17.1650  268.2290 C   0  0  0  0  0  0  0  0  0  7  0  0
   -6.3610   17.3840  267.0100 C   0  0  0  0  0  0  0  0  0  6  0  0
   -6.1100   18.6790  266.6000 C   0  0  0  0  0  0  0  0  0  5  0  0
   -5.6560   18.9230  265.1710 C   0  0  0  0  0  0  0  0  0  4  0  0
   -6.7820   18.9510  264.1090 C   0  0  1  0  0  0  0  0  0  3  0  0
   -7.8250   17.7780  264.1920 C   0  0  0  0  0  0  0  0  0 13  0  0
   -9.5630   19.2370  265.0710 C   0  0  1  0  0  0  0  0  0 16  0  0
   -9.8640   19.2550  266.5990 C   0  0  0  0  0  0  0  0  0 17  0  0
  -10.9970   18.3820  266.9400 C   0  0  0  0  0  0  0  0  0 18  0  0
  -10.8630   17.0360  267.0600 C   0  0  0  0  0  0  0  0  0 19  0  0
  -11.9410   16.2000  267.3600 C   0  0  0  0  0  0  0  0  0 20  0  0
  -13.1840   16.7630  267.4820 C   0  0  0  0  0  0  0  0  0 21  0  0
  -13.3220   18.1090  267.3820 C   0  0  0  0  0  0  0  0  0 23  0  0
  -12.2540   18.8860  267.1060 C   0  0  0  0  0  0  0  0  0 24  0  0
   -8.6970   20.3860  264.5980 C   0  0  0  0  0  0  0  0  0  1  0  0
   -6.2050   19.6760  267.5160 C   0  0  0  0  0  0  0  0  0 12  0  0
   -6.5690   19.3910  268.8190 C   0  0  0  0  0  0  0  0  0 10  0  0
   -9.0770   18.0130  264.6260 N   0  0  0  0  0  0  0  0  0 15  0  0
   -7.4630   20.2450  264.1790 N   0  0  0  0  0  0  0  0  0  2  0  0
   -7.2170   17.9640  270.3280 O   0  0  0  0  0  0  0  0  0  9  0  0
  -14.2320   15.9940  267.7740 O   0  0  0  0  0  0  0  0  0 22  0  0
   -9.1690   21.5120  264.6240 O   0  0  0  0  0  0  0  0  0  0  0  0
   -7.5430   16.6460  263.9110 O   0  0  0  0  0  0  0  0  0 14  0  0
   -6.7760   20.5090  270.0660 Cl  0  0  0  0  0  0  0  0  0 11  0  0
  2  1  2  0
  3  2  1  0
  4  3  2  0
  4  5  1  0
  6  5  1  1
  7  6  1  0
  8  9  1  1
 10  9  1  0
 11 10  2  0
 12 11  1  0
 13 12  2  0
 14 13  1  0
 15 10  1  0
 15 14  2  0
 16  8  1  0
 17  4  1  0
 18 17  2  0
 18  1  1  0
 19  8  1  0
 19  7  1  0
 20 16  1  0
 20  6  1  0
  1 21  1  0
 13 22  1  0
 23 16  2  0
 24  7  2  0
 18 25  1  0
M  END
$$$$
