
     RDKit          3D

 26 28  0  0  0  0  0  0  0  0999 V2000
   -6.8000   18.0990  268.5980 C   0  0  0  0  0  0  0  0  0 24  0  0
   -6.6910   17.0500  267.6830 C   0  0  0  0  0  0  0  0  0 23  0  0
   -6.3590   17.2860  266.4000 C   0  0  0  0  0  0  0  0  0 22  0  0
   -6.1320   18.5890  265.9380 C   0  0  0  0  0  0  0  0  0  4  0  0
   -5.7260   18.7310  264.4830 C   0  0  0  0  0  0  0  0  0  5  0  0
   -6.8770   18.8550  263.5370 C   0  0  1  0  0  0  0  0  0  6  0  0
   -7.8690   17.7520  263.5170 C   0  0  0  0  0  0  0  0  0 20  0  0
   -9.5260   19.3170  264.4190 C   0  0  1  0  0  0  0  0  0 10  0  0
   -9.8470   19.2420  265.9400 C   0  0  0  0  0  0  0  0  0 11  0  0
  -10.9200   18.2590  266.2940 C   0  0  0  0  0  0  0  0  0 12  0  0
  -12.1590   18.8590  266.4040 C   0  0  0  0  0  0  0  0  0 13  0  0
  -13.3200   18.1330  266.7080 C   0  0  0  0  0  0  0  0  0 14  0  0
  -13.2100   16.7680  266.8400 C   0  0  0  0  0  0  0  0  0 15  0  0
  -11.9890   16.1620  266.7180 C   0  0  0  0  0  0  0  0  0 17  0  0
  -10.8400   16.9080  266.4520 C   0  0  0  0  0  0  0  0  0 18  0  0
   -8.7330   20.4610  263.8640 C   0  0  0  0  0  0  0  0  0  8  0  0
   -6.2310   19.5930  266.8660 C   0  0  0  0  0  0  0  0  0  3  0  0
   -6.5480   19.3480  268.1850 C   0  0  0  0  0  0  0  0  0  2  0  0
   -6.6680   20.3470  269.0890 C   0  0  0  0  0  0  0  0  0  1  0  0
   -6.7620   21.1950  269.8610 C   0  0  0  0  0  0  0  0  0  0  0  0
   -9.0890   18.0290  263.9180 N   0  0  0  0  0  0  0  0  0 19  0  0
   -7.4590   20.1860  263.4800 N   0  0  0  0  0  0  0  0  0  7  0  0
   -7.0910   17.8790  269.8740 O   0  0  0  0  0  0  0  0  0 25  0  0
  -14.2750   16.0580  267.0940 O   0  0  0  0  0  0  0  0  0 16  0  0
   -9.0950   21.4870  263.8280 O   0  0  0  0  0  0  0  0  0  9  0  0
   -7.6100   16.6480  263.2020 O   0  0  0  0  0  0  0  0  0 21  0  0
  2  1  2  0
  3  2  1  0
  4  3  2  0
  4  5  1  0
  6  5  1  1
  7  6  1  0
  8  9  1  1
 10  9  1  0
 11 10  2  0
 12 11  1  0
 13 12  2  0
 14 13  1  0
 15 14  2  0
 15 10  1  0
 16  8  1  0
 17  4  1  0
 18 17  2  0
 18  1  1  0
 19 18  1  0
 20 19  3  0
 21  8  1  0
 21  7  1  0
 22 16  1  0
 22  6  1  0
 23  1  1  0
 24 13  1  0
 16 25  2  0
 26  7  2  0
M  END
$$$$
