
     RDKit          3D

 22 24  0  0  0  0  0  0  0  0999 V2000
  -11.1160   17.2930    3.3960 C   0  0  0  0  0  0  0  0  0  3  0  0
   -9.2130   18.9140    3.2920 N   0  0  0  0  0  0  0  0  0 17  0  0
   -8.5690   19.3910    4.3170 C   0  0  0  0  0  0  0  0  0 18  0  0
   -9.3450   17.1960    1.6840 C   0  0  0  0  0  0  0  0  0  1  0  0
  -13.4460   17.8540    3.5180 C   0  0  0  0  0  0  0  0  0 15  0  0
  -16.1440   17.0290    4.3990 C   0  0  0  0  0  0  0  0  0  8  0  0
  -17.4510   16.6230    4.5590 C   0  0  0  0  0  0  0  0  0  9  0  0
  -17.8070   15.3070    4.2850 C   0  0  0  0  0  0  0  0  0 10  0  0
  -16.8340   14.4350    3.8900 C   0  0  0  0  0  0  0  0  0 12  0  0
  -15.5250   14.8290    3.7070 C   0  0  0  0  0  0  0  0  0 14  0  0
  -15.1620   16.1260    3.9750 C   0  0  0  0  0  0  0  0  0  7  0  0
  -13.7440   16.5430    3.7930 C   0  0  0  0  0  0  0  0  0  6  0  0
  -12.7390   15.6080    3.8890 C   0  0  0  0  0  0  0  0  0  5  0  0
  -11.4340   15.9810    3.6820 C   0  0  0  0  0  0  0  0  0  4  0  0
   -9.6340   17.5590    3.1450 C   0  0  2  0  0  0  0  0  0  2  0  0
   -8.3210   20.6990    4.0580 C   0  0  0  0  0  0  0  0  0 19  0  0
   -9.3630   19.8640    2.3700 C   0  0  0  0  0  0  0  0  0 21  0  0
   -8.3450   16.4060    1.3470 C   0  0  0  0  0  0  0  0  0  0  0  0
  -12.1250   18.2450    3.2920 C   0  0  0  0  0  0  0  0  0 16  0  0
   -8.8140   20.9810    2.8650 N   0  0  0  0  0  0  0  0  0 20  0  0
  -19.1130   14.8790    4.4100 O   0  0  0  0  0  0  0  0  0 11  0  0
  -17.2760   12.7220    3.6200 Cl  0  0  0  0  0  0  0  0  0 13  0  0
  3  2  1  0
  7  6  2  0
  8  7  1  0
  9  8  2  0
 10  9  1  0
 11 10  2  0
 11  6  1  0
 12 11  1  0
 12  5  2  0
 13 12  1  0
 14 13  2  0
  1 14  1  0
 15  1  1  0
 15  4  1  0
 15  2  1  6
 16  3  2  0
 17  2  1  0
 18  4  2  0
 19  5  1  0
 19  1  2  0
 20 17  2  0
 20 16  1  0
 21  8  1  0
 22  9  1  0
M  END
$$$$
