
     RDKit          3D

 26 28  0  0  0  0  0  0  0  0999 V2000
   -6.6420   18.2620    4.8500 C   0  0  0  0  0  0  0  0  0 12  0  0
   -7.9140   17.4880    0.4500 C   0  0  0  0  0  0  0  0  0 14  0  0
  -10.9020   18.3250    3.1770 C   0  0  0  0  0  0  0  0  0 19  0  0
  -10.6840   16.9880    3.4850 C   0  0  0  0  0  0  0  0  0 20  0  0
  -11.7560   16.1540    3.7640 C   0  0  0  0  0  0  0  0  0 21  0  0
  -12.1970   18.8190    3.1480 C   0  0  0  0  0  0  0  0  0 25  0  0
   -8.6680   20.3200    0.8000 C   0  0  0  0  0  0  0  0  0  1  0  0
   -6.9010   18.6170    0.2160 C   0  0  2  0  0  0  0  0  0  3  0  0
   -5.7010   18.4060    1.1510 C   0  0  0  0  0  0  0  0  0  4  0  0
   -6.0030   18.8130    2.5930 C   0  0  0  0  0  0  0  0  0  5  0  0
   -5.8830   20.1430    2.9570 C   0  0  0  0  0  0  0  0  0  6  0  0
   -6.1480   20.5320    4.2570 C   0  0  0  0  0  0  0  0  0  7  0  0
   -6.5280   19.5990    5.2080 C   0  0  0  0  0  0  0  0  0  8  0  0
   -6.0510   21.1700    6.8770 C   0  0  0  0  0  0  0  0  0 10  0  0
   -6.3760   17.8710    3.5420 C   0  0  0  0  0  0  0  0  0 13  0  0
   -9.5700   19.1860    1.3060 C   0  0  2  0  0  0  0  0  0 17  0  0
   -9.7310   19.2570    2.8500 C   0  0  0  0  0  0  0  0  0 18  0  0
  -13.0490   16.6520    3.7320 C   0  0  0  0  0  0  0  0  0 22  0  0
  -13.2720   17.9860    3.4250 C   0  0  0  0  0  0  0  0  0 24  0  0
   -7.3560   20.0070    0.2560 N   0  0  0  0  0  0  0  0  0  2  0  0
   -9.2220   17.8060    0.9840 N   0  0  0  0  0  0  0  0  0 16  0  0
   -9.0510   21.4410    0.8310 O   0  0  0  0  0  0  0  0  0  0  0  0
   -6.7870   20.0290    6.5170 O   0  0  0  0  0  0  0  0  0  9  0  0
   -6.8020   22.1230    7.5840 O   0  0  0  0  0  0  0  0  0 11  0  0
   -7.6270   16.3630    0.2040 O   0  0  0  0  0  0  0  0  0 15  0  0
  -14.1330   15.8100    4.0100 O   0  0  0  0  0  0  0  0  0 23  0  0
  4  3  2  0
  5  4  1  0
  6  3  1  0
  8  2  1  0
  8  9  1  1
 10  9  1  0
 11 10  1  0
 12 11  2  0
 13 12  1  0
 13  1  2  0
 15 10  2  0
 15  1  1  0
 16  7  1  0
 17  3  1  0
 16 17  1  1
 18  5  2  0
 19 18  1  0
 19  6  2  0
 20  8  1  0
 20  7  1  0
 21 16  1  0
 21  2  1  0
 22  7  2  0
 23 13  1  0
 23 14  1  0
 24 14  1  0
 25  2  2  0
 26 18  1  0
M  END
$$$$
