
     RDKit          3D

 22 23  0  0  0  0  0  0  0  0999 V2000
  -17.7550    0.6160   69.1490 O   0  0  0  0  0  0  0  0  0  6  0  0
  -17.5790   -0.2240   69.9960 C   0  0  0  0  0  0  0  0  0  5  0  0
  -18.7660   -0.7440   70.7480 C   0  0  2  0  0  0  0  0  0  7  0  0
  -18.8990   -0.2620   72.1760 C   0  0  0  0  0  0  0  0  0  8  0  0
  -20.2230   -0.7450   72.7790 C   0  0  0  0  0  0  0  0  0  9  0  0
  -20.8580   -1.8640   71.9670 C   0  0  0  0  0  0  0  0  0 10  0  0
  -19.8070   -2.8900   71.5650 C   0  0  0  0  0  0  0  0  0 11  0  0
  -18.7100   -2.2650   70.7050 C   0  0  0  0  0  0  0  0  0 12  0  0
  -16.3630   -0.7210   70.2100 N   0  0  0  0  0  0  0  0  0  4  0  0
  -15.3120   -0.1840   69.3520 C   0  0  1  0  0  0  0  0  0  3  0  0
  -13.9520   -0.2630   70.0490 C   0  0  1  0  0  0  0  0  0  1  0  0
  -13.7990    0.7340   71.1950 C   0  0  0  0  0  0  0  0  0  0  0  0
  -13.5970   -1.6500   70.5440 C   0  0  0  0  0  0  0  0  0  2  0  0
  -15.3240   -0.9780   68.0660 C   0  0  0  0  0  0  0  0  0 13  0  0
  -14.8920   -0.4830   67.0350 O   0  0  0  0  0  0  0  0  0 14  0  0
  -15.8580   -2.2080   68.1640 N   0  0  0  0  0  0  0  0  0 15  0  0
  -16.0210   -3.1690   67.1440 C   0  0  0  0  0  0  0  0  0 16  0  0
  -16.8380   -4.2570   67.3940 C   0  0  0  0  0  0  0  0  0 17  0  0
  -16.9970   -5.1880   66.3860 C   0  0  0  0  0  0  0  0  0 18  0  0
  -16.3550   -5.0240   65.2080 N   0  0  0  0  0  0  0  0  0 19  0  0
  -15.5950   -3.9980   65.0030 C   0  0  0  0  0  0  0  0  0 20  0  0
  -15.3970   -3.0850   65.9020 C   0  0  0  0  0  0  0  0  0 21  0  0
  2  1  2  0
  3  2  1  1
  4  3  1  0
  5  4  1  0
  6  5  1  0
  7  6  1  0
  8  3  1  0
  8  7  1  0
  9  2  1  0
 10  9  1  1
 11 10  1  0
 11 12  1  1
 13 11  1  0
 14 10  1  0
 15 14  2  0
 16 14  1  0
 17 16  1  0
 18 17  2  0
 19 18  1  0
 20 19  2  0
 21 20  1  0
 22 21  2  0
 22 17  1  0
M  END
$$$$
