
     RDKit          3D

 21 24  0  0  0  0  0  0  0  0999 V2000
   -9.8210    9.5230   11.7580 C   0  0  0  0  0  0  0  0  0  2  0  0
  -11.3340    9.1210   11.7840 C   0  0  1  0  0  0  0  0  0  1  0  0
  -11.8930   11.6010   12.4140 C   0  0  0  0  0  0  0  0  0 12  0  0
  -12.5740   12.4560   13.4700 C   0  0  0  0  0  0  0  0  0 13  0  0
  -14.0740   12.1350   13.5120 C   0  0  1  0  0  0  0  0  0 14  0  0
  -14.2620   10.7110   13.8870 C   0  0  1  0  0  0  0  0  0 20  0  0
  -15.7870   10.6080   14.0650 C   0  0  0  0  0  0  0  0  0 19  0  0
  -16.0080   11.8430   14.9660 C   0  0  0  0  0  0  0  0  0 18  0  0
  -14.8880   12.8190   14.5960 C   0  0  0  0  0  0  0  0  0 16  0  0
  -14.7750   12.5470   12.2060 C   0  0  0  0  0  0  0  0  0 15  0  0
  -11.9160    9.1920   10.3640 C   0  0  0  0  0  0  0  0  0  0  0  0
   -8.7670    8.4300   11.9370 C   0  0  0  0  0  0  0  0  0  3  0  0
   -9.2060    7.1380   12.5620 C   0  0  0  0  0  0  0  0  0  4  0  0
  -10.6310    6.8700   12.6760 C   0  0  0  0  0  0  0  0  0  6  0  0
  -11.5710    7.7100   12.3150 C   0  0  0  0  0  0  0  0  0  7  0  0
  -13.0190    7.3260   12.4540 C   0  0  0  0  0  0  0  0  0  8  0  0
  -13.7370    8.2840   13.3360 C   0  0  0  0  0  0  0  0  0  9  0  0
  -13.5640    9.7600   12.9120 C   0  0  2  0  0  0  0  0  0 10  0  0
  -12.0460   10.0950   12.8060 C   0  0  1  0  0  0  0  0  0 11  0  0
   -8.4000    6.3160   12.9460 O   0  0  0  0  0  0  0  0  0  5  0  0
  -14.7000   13.9070   15.1010 O   0  0  0  0  0  0  0  0  0 17  0  0
  2  1  1  0
  4  3  1  0
  5  4  1  0
  6  5  1  0
  6  7  1  6
  8  7  1  0
  9  8  1  0
  9  5  1  0
  5 10  1  6
  2 11  1  6
 12  1  1  0
 13 12  1  0
 14 13  1  0
 15  2  1  0
 15 14  2  0
 16 15  1  0
 17 16  1  0
 18 17  1  1
 18  6  1  0
 19 18  1  0
 19  2  1  0
 19  3  1  6
 20 13  2  0
 21  9  2  0
M  END
$$$$
