
     RDKit          3D

 16 16  0  0  0  0  0  0  0  0999 V2000
  -17.8920  -11.9400   -4.1030 C   0  0  0  0  0  0  0  0  0  0  0  0
  -15.8140  -17.4090   -4.1060 C   0  0  0  0  0  0  0  0  0 12  0  0
  -16.3040  -18.2040   -6.4290 C   0  0  0  0  0  0  0  0  0 11  0  0
  -20.5000  -15.7280   -4.0330 C   0  0  0  0  0  0  0  0  0 14  0  0
  -18.1960  -13.4260   -3.9360 C   0  0  2  0  0  0  0  0  0  1  0  0
  -18.2350  -14.1150   -5.2810 C   0  0  0  0  0  0  0  0  0  2  0  0
  -19.4870  -13.6240   -3.1480 C   0  0  0  0  0  0  0  0  0  3  0  0
  -19.8540  -15.0820   -2.8200 C   0  0  2  0  0  0  0  0  0  4  0  0
  -18.4650  -17.1310   -2.5970 C   0  0  0  0  0  0  0  0  0  6  0  0
  -19.1210  -17.7700   -3.8060 C   0  0  2  0  0  0  0  0  0  8  0  0
  -18.0560  -18.4570   -4.6760 C   0  0  0  0  0  0  0  0  0  9  0  0
  -16.8950  -17.5950   -5.1660 C   0  0  1  0  0  0  0  0  0 10  0  0
  -18.7150  -15.8530   -2.3390 N   0  0  0  0  0  0  0  0  0  5  0  0
  -19.9310  -16.8140   -4.5460 N   0  0  0  0  0  0  0  0  0 13  0  0
  -17.6350  -17.7750   -1.9510 O   0  0  0  0  0  0  0  0  0  7  0  0
  -21.4610  -15.1730   -4.5730 O   0  0  0  0  0  0  0  0  0 15  0  0
  5  1  1  6
  6  5  1  1
  7  5  1  0
  7  8  1  6
  8  4  1  0
 10  9  1  0
 11 10  1  6
 12 11  1  0
 12  3  1  6
  2 12  1  1
 13  9  1  0
  8 13  1  6
 10 14  1  6
 14  4  1  0
  9 15  2  0
  4 16  2  0
M  END
$$$$
