
     RDKit          3D

 13 13  0  0  0  0  0  0  0  0999 V2000
   -1.0380   13.2610  -24.2230 O   0  0  0  0  0  0  0  0  0  7  0  0
   -1.0080   13.8670  -23.1020 C   0  0  0  0  0  0  0  0  0  6  0  0
    0.0670   14.0290  -22.4580 O   0  0  0  0  0  0  0  0  0  8  0  0
   -2.2500   14.4210  -22.4830 C   0  0  0  0  0  0  0  0  0  5  0  0
   -2.1550   15.3570  -21.4140 C   0  0  0  0  0  0  0  0  0  9  0  0
   -3.2950   15.9040  -20.8210 C   0  0  0  0  0  0  0  0  0 10  0  0
   -3.1910   16.8140  -19.7970 O   0  0  0  0  0  0  0  0  0 11  0  0
   -2.5910   16.5240  -18.5600 C   0  0  0  0  0  0  0  0  0 12  0  0
   -4.5370   15.5670  -21.3340 C   0  0  0  0  0  0  0  0  0  2  0  0
   -5.6150   16.0890  -20.7400 O   0  0  0  0  0  0  0  0  0  1  0  0
   -6.9040   15.6540  -21.1320 C   0  0  0  0  0  0  0  0  0  0  0  0
   -4.6370   14.6300  -22.3880 C   0  0  0  0  0  0  0  0  0  3  0  0
   -3.5010   14.0920  -22.9860 C   0  0  0  0  0  0  0  0  0  4  0  0
  2  1  2  0
  3  2  1  0
  4  2  1  0
  5  4  2  0
  6  5  1  0
  6  7  1  0
  8  7  1  0
  9  6  2  0
  9 10  1  0
 11 10  1  0
 12  9  1  0
 13 12  2  0
 13  4  1  0
M  END
$$$$
