
     RDKit          3D

 12 12  0  0  0  0  0  0  0  0999 V2000
    4.7120    5.4720   17.1670 C   0  0  0  0  0  0  0  0  0  7  0  0
    2.8010   -0.2700   19.4450 C   0  0  0  0  0  0  0  0  0  0  0  0
    4.2440    0.0080   19.0860 C   0  0  1  0  0  0  0  0  0  1  0  0
    4.7540   -1.0090   18.0910 C   0  0  0  0  0  0  0  0  0  2  0  0
    4.3930    1.4490   18.6070 C   0  0  0  0  0  0  0  0  0  3  0  0
    5.3450    2.3030   19.1520 C   0  0  0  0  0  0  0  0  0  4  0  0
    5.4490    3.6010   18.6880 C   0  0  0  0  0  0  0  0  0  5  0  0
    4.6240    4.0610   17.6660 C   0  0  0  0  0  0  0  0  0  6  0  0
    3.6760    3.2030   17.1240 C   0  0  0  0  0  0  0  0  0 10  0  0
    3.5710    1.9150   17.5950 C   0  0  0  0  0  0  0  0  0 11  0  0
    3.7870    5.9300   16.4250 O   0  0  0  0  0  0  0  0  0  8  0  0
    5.6810    6.1960   17.5000 O   0  0  0  0  0  0  0  0  0  9  0  0
  2  3  1  6
  4  3  1  6
  3  5  1  6
  6  5  2  0
  7  6  1  0
  8  7  2  0
  8  1  1  0
  9  8  1  0
 10  9  2  0
 10  5  1  0
 11  1  2  0
 12  1  1  0
M  END
$$$$
