
     RDKit          3D

 12 13  0  0  0  0  0  0  0  0999 V2000
    4.0760   -0.3460   19.2130 C   0  0  1  0  0  0  0  0  0  7  0  0
    5.1840    5.8160   17.5540 O   0  0  0  0  0  0  0  0  0  0  0  0
    4.2010    5.0830   17.2380 C   0  0  0  0  0  0  0  0  0  1  0  0
    3.2650    5.5090   16.4940 O   0  0  0  0  0  0  0  0  0  2  0  0
    4.1730    3.6790   17.7700 C   0  0  0  0  0  0  0  0  0  3  0  0
    3.2610    2.7710   17.2350 C   0  0  0  0  0  0  0  0  0  4  0  0
    3.2160    1.4730   17.7170 C   0  0  0  0  0  0  0  0  0  5  0  0
    4.1140    1.0860   18.7290 C   0  0  0  0  0  0  0  0  0  6  0  0
    5.0400    1.9880   19.2340 C   0  0  0  0  0  0  0  0  0 10  0  0
    5.0710    3.2890   18.7410 C   0  0  0  0  0  0  0  0  0 11  0  0
    2.9120   -1.2980   19.1080 C   0  0  0  0  0  0  0  0  0  8  0  0
    4.2050   -1.5900   18.3560 C   0  0  0  0  0  0  0  0  0  9  0  0
  3  2  2  0
  4  3  1  0
  5  3  1  0
  6  5  2  0
  7  6  1  0
  8  7  2  0
  1  8  1  6
  9  8  1  0
 10  9  2  0
 10  5  1  0
 11  1  1  0
 12 11  1  0
 12  1  1  0
M  END
$$$$
