
     RDKit          3D

 16 16  0  0  0  0  0  0  0  0999 V2000
    5.4360    3.2400   18.3970 C   0  0  0  0  0  0  0  0  0 14  0  0
    3.7300    1.5710   17.2750 C   0  0  0  0  0  0  0  0  0  8  0  0
    3.2350   -0.5180   23.9290 C   0  0  0  0  0  0  0  0  0  0  0  0
    1.8520   -0.0220   23.7150 C   0  0  0  0  0  0  0  0  0  1  0  0
    1.7140    0.5230   22.3650 C   0  0  0  0  0  0  0  0  0  2  0  0
    1.8870   -0.4660   21.2950 C   0  0  0  0  0  0  0  0  0  3  0  0
    3.2300   -0.3720   20.6250 C   0  0  0  0  0  0  0  0  0  4  0  0
    3.2770   -0.8290   19.1950 C   0  0  0  0  0  0  0  0  0  5  0  0
    4.5500   -0.4070   18.5490 C   0  0  0  0  0  0  0  0  0  6  0  0
    4.5780    1.0530   18.1870 C   0  0  0  0  0  0  0  0  0  7  0  0
    5.4110    1.9180   18.7440 C   0  0  0  0  0  0  0  0  0 15  0  0
    4.5930    3.7570   17.4560 C   0  0  0  0  0  0  0  0  0 10  0  0
    3.7380    2.8710   16.8930 C   0  0  0  0  0  0  0  0  0  9  0  0
    4.5570    5.1960   17.0050 C   0  0  0  0  0  0  0  0  0 11  0  0
    5.4340    5.9280   17.3770 O   0  0  0  0  0  0  0  0  0 12  0  0
    3.6800    5.5810   16.2660 O   0  0  0  0  0  0  0  0  0 13  0  0
  4  3  1  0
  5  4  1  0
  6  5  1  0
  7  6  1  0
  8  7  1  0
  9  8  1  0
 10  9  1  0
 10  2  2  0
 11 10  1  0
 11  1  2  0
 12  1  1  0
 13 12  2  0
 13  2  1  0
 14 12  1  0
 15 14  2  0
 16 14  1  0
M  END
$$$$
