
     RDKit          3D

 14 15  0  0  0  0  0  0  0  0999 V2000
    4.0390   -2.1960   18.3870 C   0  0  0  0  0  0  0  0  0  9  0  0
    3.8530    3.2800   16.8700 C   0  0  0  0  0  0  0  0  0  4  0  0
    3.7790    1.9350   17.0470 C   0  0  0  0  0  0  0  0  0  5  0  0
    4.3250   -0.7390   16.8700 C   0  0  0  0  0  0  0  0  0 11  0  0
    4.6770    5.4920   17.3150 C   0  0  0  0  0  0  0  0  0  1  0  0
    4.6930    4.0150   17.6540 C   0  0  0  0  0  0  0  0  0  3  0  0
    5.4700    3.4240   18.6580 C   0  0  0  0  0  0  0  0  0 13  0  0
    5.3990    2.0390   18.8420 C   0  0  0  0  0  0  0  0  0 12  0  0
    4.5150    1.3230   18.0370 C   0  0  0  0  0  0  0  0  0  6  0  0
    4.1670   -0.9520   19.0010 C   0  0  0  0  0  0  0  0  0  8  0  0
    4.3370   -0.0980   18.0310 N   0  0  0  0  0  0  0  0  0  7  0  0
    4.1590   -2.0140   17.0730 N   0  0  0  0  0  0  0  0  0 10  0  0
    5.5420    6.2440   17.7750 O   0  0  0  0  0  0  0  0  0  0  0  0
    3.7900    5.8770   16.5110 O   0  0  0  0  0  0  0  0  0  2  0  0
  3  2  2  0
  6  2  1  0
  6  5  1  0
  7  6  2  0
  8  7  1  0
  9  8  2  0
  9  3  1  0
 10  1  2  0
 11 10  1  0
  9 11  1  0
 11  4  1  0
 12  4  2  0
 12  1  1  0
 13  5  2  0
 14  5  1  0
M  END
$$$$
