
     RDKit          3D

 11 11  0  0  0  0  0  0  0  0999 V2000
    7.5020   16.7990  -59.7250 C   0  0  0  0  0  0  0  0  0  0  0  0
    8.3870   17.6620  -59.2790 C   0  0  0  0  0  0  0  0  0  1  0  0
    8.3890   19.0900  -59.8190 C   0  0  0  0  0  0  0  0  0  2  0  0
    7.5220   19.4390  -60.8450 C   0  0  0  0  0  0  0  0  0  3  0  0
    7.5060   20.7250  -61.3570 C   0  0  0  0  0  0  0  0  0  4  0  0
    8.3710   21.6680  -60.8260 C   0  0  0  0  0  0  0  0  0  5  0  0
    9.2400   21.3180  -59.7980 C   0  0  0  0  0  0  0  0  0  9  0  0
    9.2580   20.0290  -59.2920 C   0  0  0  0  0  0  0  0  0 10  0  0
    8.3720   23.0940  -61.3620 C   0  0  0  0  0  0  0  0  0  6  0  0
    9.3270   23.8560  -61.0610 O   0  0  0  0  0  0  0  0  0  7  0  0
    7.4230   23.5100  -62.0790 O   0  0  0  0  0  0  0  0  0  8  0  0
  2  1  2  0
  3  2  1  0
  4  3  2  0
  5  4  1  0
  6  5  2  0
  7  6  1  0
  8  7  2  0
  8  3  1  0
  9  6  1  0
 10  9  2  0
 11  9  1  0
M  END
$$$$
