
     RDKit          3D

 13 15  0  0  0  0  0  0  0  0999 V2000
  -14.2500  -16.3050   -4.3080 C   0  0  0  0  0  0  0  0  0  0  0  0
  -19.3810  -20.2500   -5.7480 C   0  0  0  0  0  0  0  0  0 11  0  0
  -18.0960  -19.6040   -6.2270 C   0  0  0  0  0  0  0  0  0 12  0  0
  -14.1360  -17.1020   -5.4490 C   0  0  0  0  0  0  0  0  0  1  0  0
  -15.1730  -17.9060   -5.8650 C   0  0  0  0  0  0  0  0  0  2  0  0
  -16.3540  -17.9210   -5.1160 C   0  0  0  0  0  0  0  0  0  3  0  0
  -17.6030  -18.6040   -5.2330 C   0  0  0  0  0  0  0  0  0  4  0  0
  -18.3870  -18.1960   -4.1970 C   0  0  0  0  0  0  0  0  0  5  0  0
  -16.4460  -17.1120   -3.9600 C   0  0  0  0  0  0  0  0  0  7  0  0
  -15.3980  -16.2920   -3.5510 C   0  0  0  0  0  0  0  0  0  8  0  0
  -19.7790  -18.6880   -3.9460 C   0  0  0  0  0  0  0  0  0  9  0  0
  -17.6950  -17.3020   -3.4090 N   0  0  0  0  0  0  0  0  0  6  0  0
  -20.3150  -19.2710   -5.1770 N   0  0  0  0  0  0  0  0  0 10  0  0
  3  2  1  0
  4  1  2  0
  5  4  1  0
  6  5  2  0
  3  7  1  6
  7  6  1  0
  8  7  2  0
  9  6  1  0
 10  9  2  0
 10  1  1  0
 11  8  1  0
 12  9  1  0
 12  8  1  0
  2 13  1  6
 11 13  1  1
M  END
$$$$
