
     RDKit          3D

 11 11  0  0  0  0  0  0  0  0999 V2000
    3.7100    5.5340   16.5100 O   0  0  0  0  0  0  0  0  0  7  0  0
    4.6180    5.0740   17.2490 C   0  0  0  0  0  0  0  0  0  6  0  0
    5.5900    5.7800   17.6060 O   0  0  0  0  0  0  0  0  0  8  0  0
    4.5050    3.6420   17.7360 C   0  0  0  0  0  0  0  0  0  5  0  0
    5.3560    3.1730   18.7210 C   0  0  0  0  0  0  0  0  0  4  0  0
    5.2110    1.8720   19.1690 C   0  0  0  0  0  0  0  0  0  3  0  0
    4.2300    1.0570   18.6390 C   0  0  0  0  0  0  0  0  0  2  0  0
    4.0670   -0.3890   19.1320 C   0  0  0  0  0  0  0  0  0  1  0  0
    4.5520   -1.4650   18.1640 C   0  0  0  0  0  0  0  0  0  0  0  0
    3.3870    1.5410   17.6500 C   0  0  0  0  0  0  0  0  0 10  0  0
    3.5220    2.8420   17.1890 C   0  0  0  0  0  0  0  0  0  9  0  0
  2  1  2  0
  3  2  1  0
  4  2  1  0
  5  4  2  0
  6  5  1  0
  7  6  2  0
  8  7  1  0
  9  8  1  0
 10  7  1  0
 11 10  2  0
 11  4  1  0
M  END
$$$$
