
     RDKit          3D

 16 17  0  0  0  0  0  0  0  0999 V2000
    3.3000    0.6040   20.8000 C   0  0  0  0  0  0  0  0  0  9  0  0
    2.0640   -1.8760   20.9450 C   0  0  0  0  0  0  0  0  0 12  0  0
    3.4450    1.7890   17.3440 C   0  0  0  0  0  0  0  0  0 14  0  0
    3.5670    5.8910   16.1860 O   0  0  0  0  0  0  0  0  0  0  0  0
    4.5370    5.4690   16.8600 C   0  0  0  0  0  0  0  0  0  1  0  0
    5.5420    6.1510   17.1670 O   0  0  0  0  0  0  0  0  0  2  0  0
    4.4850    3.9960   17.3580 C   0  0  0  0  0  0  0  0  0  3  0  0
    5.4140    3.5010   18.2780 C   0  0  0  0  0  0  0  0  0  4  0  0
    5.3720    2.1810   18.7290 C   0  0  0  0  0  0  0  0  0  5  0  0
    4.3840    1.3100   18.2600 C   0  0  0  0  0  0  0  0  0  6  0  0
    4.3350   -0.0040   18.7150 O   0  0  0  0  0  0  0  0  0  7  0  0
    3.5180   -0.3320   19.7780 C   0  0  0  0  0  0  0  0  0  8  0  0
    2.4770    0.2960   21.8770 C   0  0  0  0  0  0  0  0  0 10  0  0
    1.8520   -0.9420   21.9600 C   0  0  0  0  0  0  0  0  0 11  0  0
    2.8880   -1.5770   19.8620 C   0  0  0  0  0  0  0  0  0 13  0  0
    3.5050    3.1120   16.9050 C   0  0  0  0  0  0  0  0  0 15  0  0
  5  4  2  0
  6  5  1  0
  7  5  1  0
  8  7  1  0
  9  8  2  0
 10  9  1  0
 10  3  2  0
 11 10  1  0
 12 11  1  0
 12  1  2  0
 13  1  1  0
 14  2  1  0
 14 13  2  0
 15 12  1  0
 15  2  2  0
 16  7  2  0
 16  3  1  0
M  END
$$$$
