
     RDKit          3D

 15 16  0  0  0  0  0  0  0  0999 V2000
    4.3340    0.2160   19.3320 C   0  0  2  0  0  0  0  0  0  7  0  0
    2.9310   -2.2850   19.8310 C   0  0  0  0  0  0  0  0  0 10  0  0
    3.1090    0.1800   20.2400 C   0  0  0  0  0  0  0  0  0  8  0  0
    3.6900    5.8330   16.0630 O   0  0  0  0  0  0  0  0  0  0  0  0
    4.5980    5.4520   16.8450 C   0  0  0  0  0  0  0  0  0  1  0  0
    5.5620    6.2070   17.1140 O   0  0  0  0  0  0  0  0  0  2  0  0
    4.5230    4.0720   17.4880 C   0  0  0  0  0  0  0  0  0  3  0  0
    3.5330    3.1830   17.1030 C   0  0  0  0  0  0  0  0  0  4  0  0
    3.4660    1.9340   17.6950 C   0  0  0  0  0  0  0  0  0  5  0  0
    4.3910    1.5830   18.6630 C   0  0  0  0  0  0  0  0  0  6  0  0
    5.3750    2.4700   19.0500 C   0  0  0  0  0  0  0  0  0 13  0  0
    5.4450    3.7180   18.4600 C   0  0  0  0  0  0  0  0  0 14  0  0
    4.3040   -0.8760   18.2660 C   0  0  0  0  0  0  0  0  0 12  0  0
    4.1560   -2.2440   18.9200 C   0  0  0  0  0  0  0  0  0 11  0  0
    2.9370   -1.1880   20.8890 C   0  0  0  0  0  0  0  0  0  9  0  0
  3  1  1  0
  5  4  2  0
  6  5  1  0
  7  5  1  0
  8  7  2  0
  9  8  1  0
 10  9  2  0
  1 10  1  6
 11 10  1  0
 12 11  2  0
 12  7  1  0
 13  1  1  0
 13 14  1  6
  2 14  1  6
  3 15  1  1
 15  2  1  6
M  END
$$$$
