
     RDKit          3D

  9  9  0  0  0  0  0  0  0  0999 V2000
  -18.5120  -18.6920   -4.1550 C   0  0  0  0  0  0  0  0  0  3  0  0
  -17.6290  -19.2530   -5.0850 C   0  0  0  0  0  0  0  0  0  4  0  0
  -18.1160  -20.0870   -6.0810 C   0  0  0  0  0  0  0  0  0  5  0  0
  -19.4750  -20.3390   -6.1080 C   0  0  0  0  0  0  0  0  0  6  0  0
  -19.8670  -19.0070   -4.2730 C   0  0  0  0  0  0  0  0  0  8  0  0
  -17.9730  -17.7520   -3.0120 B   0  0  0  0  0  0  0  0  0  1  0  0
  -20.3420  -19.8140   -5.2330 N   0  0  0  0  0  0  0  0  0  7  0  0
  -18.8480  -17.1600   -2.1530 O   0  0  0  0  0  0  0  0  0  0  0  0
  -16.6350  -17.5260   -2.8760 O   0  0  0  0  0  0  0  0  0  2  0  0
  2  1  2  0
  3  2  1  0
  4  3  2  0
  5  1  1  0
  6  1  1  0
  7  4  1  0
  7  5  2  0
  8  6  1  0
  9  6  1  0
M  END
$$$$
