
     RDKit          3D

 10 10  0  0  0  0  0  0  0  0999 V2000
    5.3810    1.5730   18.8950 C   0  0  0  0  0  0  0  0  0  8  0  0
    4.3910    0.7870   18.2780 C   0  0  0  0  0  0  0  0  0  6  0  0
    3.5300    1.4000   17.3440 C   0  0  0  0  0  0  0  0  0  5  0  0
    3.6470    2.7590   17.0320 C   0  0  0  0  0  0  0  0  0  4  0  0
    4.6310    3.5260   17.6520 C   0  0  0  0  0  0  0  0  0  3  0  0
    5.5130    2.9500   18.5900 C   0  0  0  0  0  0  0  0  0  9  0  0
    4.7100    4.9830   17.2440 C   0  0  0  0  0  0  0  0  0  1  0  0
    4.1630   -1.2100   18.6710 I   0  0  0  0  0  0  0  0  0  7  0  0
    5.7560    5.5930   17.6180 O   0  0  0  0  0  0  0  0  0  0  0  0
    3.7600    5.4960   16.5730 O   0  0  0  0  0  0  0  0  0  2  0  0
  2  1  2  0
  3  2  1  0
  4  3  2  0
  5  4  1  0
  6  5  2  0
  6  1  1  0
  7  5  1  0
  8  2  1  0
  9  7  2  0
 10  7  1  0
M  END
$$$$
