
     RDKit          3D

 10 10  0  0  0  0  0  0  0  0999 V2000
    4.4590    5.1290   17.0490 C   0  0  0  0  0  0  0  0  0  1  0  0
    3.4880    5.4640   16.3400 O   0  0  0  0  0  0  0  0  0  0  0  0
    4.4360    3.7180   17.6210 C   0  0  0  0  0  0  0  0  0  3  0  0
    3.5370    2.7790   17.1310 C   0  0  0  0  0  0  0  0  0  4  0  0
    3.5120    1.4870   17.6610 C   0  0  0  0  0  0  0  0  0  5  0  0
    4.4110    1.1620   18.6830 C   0  0  0  0  0  0  0  0  0  6  0  0
    4.4030   -0.0620   19.1970 F   0  0  0  0  0  0  0  0  0  7  0  0
    5.3190    2.1000   19.1780 C   0  0  0  0  0  0  0  0  0  8  0  0
    5.3220    3.3790   18.6350 C   0  0  0  0  0  0  0  0  0  9  0  0
    5.4440    5.8280   17.3480 O   0  0  0  0  0  0  0  0  0  2  0  0
  2  1  2  0
  3  1  1  0
  4  3  2  0
  5  4  1  0
  6  5  2  0
  7  6  1  0
  8  6  1  0
  9  8  2  0
  9  3  1  0
 10  1  1  0
M  END
$$$$
