
     RDKit          3D

 10 10  0  0  0  0  0  0  0  0999 V2000
    3.8170   -0.7960   19.0420 Cl  0  0  0  0  0  0  0  0  0  7  0  0
    3.9480    0.8930   18.5480 C   0  0  0  0  0  0  0  0  0  6  0  0
    4.9050    1.6820   19.1410 C   0  0  0  0  0  0  0  0  0  8  0  0
    4.9830    3.0140   18.7290 C   0  0  0  0  0  0  0  0  0  9  0  0
    3.0780    1.3400   17.5710 C   0  0  0  0  0  0  0  0  0  5  0  0
    3.1770    2.6710   17.1710 C   0  0  0  0  0  0  0  0  0  4  0  0
    4.1310    3.5040   17.7480 C   0  0  0  0  0  0  0  0  0  3  0  0
    4.2290    4.9670   17.2890 C   0  0  0  0  0  0  0  0  0  1  0  0
    5.2240    5.6090   17.6550 O   0  0  0  0  0  0  0  0  0  0  0  0
    3.2910    5.3740   16.5770 O   0  0  0  0  0  0  0  0  0  2  0  0
  2  1  1  0
  3  2  2  0
  4  3  1  0
  5  2  1  0
  6  5  2  0
  7  6  1  0
  7  4  2  0
  8  7  1  0
  9  8  2  0
 10  8  1  0
M  END
$$$$
