
     RDKit          3D

 11 11  0  0  0  0  0  0  0  0999 V2000
    3.3170    1.5350   17.5640 C   0  0  0  0  0  0  0  0  0  5  0  0
    3.4810    2.8300   17.0970 C   0  0  0  0  0  0  0  0  0  4  0  0
    4.4470    3.6420   17.6670 C   0  0  0  0  0  0  0  0  0  3  0  0
    5.2530    3.1460   18.6930 C   0  0  0  0  0  0  0  0  0 10  0  0
    5.0840    1.8500   19.1470 C   0  0  0  0  0  0  0  0  0  9  0  0
    4.1210    1.0280   18.5730 C   0  0  0  0  0  0  0  0  0  6  0  0
    3.9030   -0.4170   19.0470 C   0  0  0  0  0  0  0  0  0  7  0  0
    4.5880    5.0740   17.1720 C   0  0  0  0  0  0  0  0  0  1  0  0
    3.6810    5.5650   16.4440 O   0  0  0  0  0  0  0  0  0  0  0  0
    5.5780    5.7560   17.5420 O   0  0  0  0  0  0  0  0  0  2  0  0
    4.6560   -1.6790   18.0150 Cl  0  0  0  0  0  0  0  0  0  8  0  0
  2  1  2  0
  3  2  1  0
  4  3  2  0
  5  4  1  0
  6  5  2  0
  6  1  1  0
  7  6  1  0
  8  3  1  0
  9  8  2  0
 10  8  1  0
  7 11  1  1
M  END
$$$$
