
     RDKit          3D

 12 12  0  0  0  0  0  0  0  0999 V2000
    3.4570    1.8110   17.8500 C   0  0  0  0  0  0  0  0  0  5  0  0
    3.5980    3.0290   17.2100 C   0  0  0  0  0  0  0  0  0  4  0  0
    4.5410    3.9370   17.6590 C   0  0  0  0  0  0  0  0  0  3  0  0
    5.3420    3.6400   18.7450 C   0  0  0  0  0  0  0  0  0 11  0  0
    5.2020    2.4240   19.3840 C   0  0  0  0  0  0  0  0  0 10  0  0
    4.2620    1.5080   18.9350 C   0  0  0  0  0  0  0  0  0  6  0  0
    4.1440    0.1860   19.6860 C   0  0  0  0  0  0  0  0  0  7  0  0
    3.3580   -0.9380   19.0180 C   0  0  0  0  0  0  0  0  0  8  0  0
    4.6980    5.2850   16.9750 C   0  0  0  0  0  0  0  0  0  1  0  0
    5.7480    5.9520   17.1540 O   0  0  0  0  0  0  0  0  0  0  0  0
    3.7630    5.7250   16.2620 O   0  0  0  0  0  0  0  0  0  2  0  0
    4.6070   -2.0110   17.9990 Br  0  0  0  0  0  0  0  0  0  9  0  0
  2  1  2  0
  3  2  1  0
  4  3  2  0
  5  4  1  0
  6  5  2  0
  6  1  1  0
  7  6  1  1
  8  7  1  0
  9  3  1  0
 10  9  2  0
 11  9  1  0
  8 12  1  1
M  END
$$$$
