
     RDKit          3D

 12 12  0  0  0  0  0  0  0  0999 V2000
    4.2050    2.7240   17.5750 C   0  0  0  0  0  0  0  0  0  5  0  0
    5.0760    2.4100   18.6050 C   0  0  0  0  0  0  0  0  0  9  0  0
    5.0660    1.1300   19.1260 C   0  0  0  0  0  0  0  0  0 10  0  0
    4.1930    0.1820   18.6190 C   0  0  0  0  0  0  0  0  0  2  0  0
    3.3140    0.5020   17.5940 C   0  0  0  0  0  0  0  0  0  3  0  0
    3.3240    1.7840   17.0670 C   0  0  0  0  0  0  0  0  0  4  0  0
    3.0430   -1.8320   18.9240 C   0  0  0  0  0  0  0  0  0  0  0  0
    4.2220    4.1470   17.0350 C   0  0  0  0  0  0  0  0  0  6  0  0
    4.2120   -1.1020   19.1650 O   0  0  0  0  0  0  0  0  0  1  0  0
    5.9360    0.8030   20.1670 O   0  0  0  0  0  0  0  0  0 11  0  0
    3.3210    4.5210   16.2480 O   0  0  0  0  0  0  0  0  0  7  0  0
    5.1230    4.9220   17.4190 O   0  0  0  0  0  0  0  0  0  8  0  0
  2  1  2  0
  3  2  1  0
  4  3  2  0
  5  4  1  0
  6  5  2  0
  6  1  1  0
  8  1  1  0
  9  7  1  0
  9  4  1  0
 10  3  1  0
 11  8  2  0
 12  8  1  0
M  END
$$$$
