
     RDKit          3D

 13 13  0  0  0  0  0  0  0  0999 V2000
    2.1770   -1.2390   21.5230 C   0  0  0  0  0  0  0  0  0  0  0  0
    3.0240   -0.0350   21.1290 C   0  0  0  0  0  0  0  0  0  1  0  0
    3.4460   -0.0500   19.6620 C   0  0  0  0  0  0  0  0  0  2  0  0
    3.6200    1.2980   18.9740 C   0  0  0  0  0  0  0  0  0  4  0  0
    2.8290    1.6370   17.8890 C   0  0  0  0  0  0  0  0  0  5  0  0
    2.9920    2.8740   17.2900 C   0  0  0  0  0  0  0  0  0  6  0  0
    3.9260    3.7660   17.7940 C   0  0  0  0  0  0  0  0  0  7  0  0
    4.7090    3.4290   18.8850 C   0  0  0  0  0  0  0  0  0 11  0  0
    4.5480    2.1920   19.4830 C   0  0  0  0  0  0  0  0  0 12  0  0
    4.0850    5.1340   17.1410 C   0  0  0  0  0  0  0  0  0  8  0  0
    3.6170   -1.0710   19.0870 O   0  0  0  0  0  0  0  0  0  3  0  0
    3.1350    5.5880   16.4450 O   0  0  0  0  0  0  0  0  0  9  0  0
    5.1380    5.8040   17.3230 O   0  0  0  0  0  0  0  0  0 10  0  0
  2  1  1  0
  3  2  1  0
  4  3  1  0
  5  4  2  0
  6  5  1  0
  7  6  2  0
  8  7  1  0
  9  8  2  0
  9  4  1  0
 10  7  1  0
 11  3  2  0
 12 10  2  0
 13 10  1  0
M  END
$$$$
