
     RDKit          3D

 13 13  0  0  0  0  0  0  0  0999 V2000
    4.2840    5.2070   17.0990 C   0  0  0  0  0  0  0  0  0  8  0  0
    4.1380    3.8150   17.7070 C   0  0  0  0  0  0  0  0  0  7  0  0
    3.1910    2.9380   17.2020 C   0  0  0  0  0  0  0  0  0  6  0  0
    3.0480    1.6740   17.7540 C   0  0  0  0  0  0  0  0  0  5  0  0
    3.8600    1.2820   18.8040 C   0  0  0  0  0  0  0  0  0  4  0  0
    3.7020   -0.1010   19.4370 C   0  0  0  0  0  0  0  0  0  3  0  0
    4.1400   -1.2940   18.5960 C   0  0  0  0  0  0  0  0  0  1  0  0
    4.2340   -2.6560   19.2770 C   0  0  0  0  0  0  0  0  0  0  0  0
    4.8010    2.1640   19.3150 C   0  0  0  0  0  0  0  0  0 12  0  0
    4.9420    3.4280   18.7660 C   0  0  0  0  0  0  0  0  0 11  0  0
    5.3320    5.8810   17.2860 O   0  0  0  0  0  0  0  0  0  9  0  0
    3.3410    5.6820   16.4170 O   0  0  0  0  0  0  0  0  0 10  0  0
    4.3910   -1.1800   17.4450 O   0  0  0  0  0  0  0  0  0  2  0  0
  2  1  1  0
  3  2  2  0
  4  3  1  0
  5  4  2  0
  6  5  1  0
  7  6  1  0
  8  7  1  0
  9  5  1  0
 10  9  2  0
 10  2  1  0
 11  1  2  0
 12  1  1  0
 13  7  2  0
M  END
$$$$
