
     RDKit          3D

 14 14  0  0  0  0  0  0  0  0999 V2000
    4.0130   -1.1660   18.9440 C   0  0  2  0  0  0  0  0  0  8  0  0
    5.5420    3.3890   18.8230 C   0  0  0  0  0  0  0  0  0 13  0  0
    5.5260    2.1190   19.3600 C   0  0  0  0  0  0  0  0  0 12  0  0
    4.6160    1.1790   18.9100 C   0  0  0  0  0  0  0  0  0  6  0  0
    3.7080    1.5130   17.9100 C   0  0  0  0  0  0  0  0  0  5  0  0
    3.7310    2.7880   17.3640 C   0  0  0  0  0  0  0  0  0  4  0  0
    4.6460    3.7220   17.8230 C   0  0  0  0  0  0  0  0  0  3  0  0
    4.6640    5.1280   17.2440 C   0  0  0  0  0  0  0  0  0  1  0  0
    4.4500   -1.3760   17.6710 F   0  0  0  0  0  0  0  0  0  9  0  0
    4.3110   -2.2460   19.7130 F   0  0  0  0  0  0  0  0  0 10  0  0
    2.6650   -0.9950   18.9620 F   0  0  0  0  0  0  0  0  0 11  0  0
    3.7140    5.5150   16.5120 O   0  0  0  0  0  0  0  0  0  0  0  0
    5.6100    5.9060   17.5380 O   0  0  0  0  0  0  0  0  0  2  0  0
    4.6610   -0.0790   19.5210 O   0  0  0  0  0  0  0  0  0  7  0  0
  3  2  2  0
  4  3  1  0
  5  4  2  0
  6  5  1  0
  7  6  2  0
  7  2  1  0
  8  7  1  0
  1  9  1  6
 10  1  1  0
 11  1  1  0
 12  8  2  0
 13  8  1  0
 14  4  1  0
 14  1  1  0
M  END
$$$$
