
     RDKit          3D

 10 10  0  0  0  0  0  0  0  0999 V2000
    4.5750    5.1630   17.0700 C   0  0  0  0  0  0  0  0  0  1  0  0
    3.6500    5.6260   16.3480 O   0  0  0  0  0  0  0  0  0  0  0  0
    5.5510    5.8740   17.3880 O   0  0  0  0  0  0  0  0  0  2  0  0
    4.5300    3.7260   17.5810 C   0  0  0  0  0  0  0  0  0  3  0  0
    5.4360    3.3010   18.5530 C   0  0  0  0  0  0  0  0  0  4  0  0
    5.3970    1.9970   19.0230 C   0  0  0  0  0  0  0  0  0  5  0  0
    4.4470    1.1270   18.5070 C   0  0  0  0  0  0  0  0  0  6  0  0
    3.5450    1.5540   17.5540 C   0  0  0  0  0  0  0  0  0  8  0  0
    3.5860    2.8510   17.0870 C   0  0  0  0  0  0  0  0  0  9  0  0
    4.3570   -0.2070   18.9460 O   0  0  0  0  0  0  0  0  0  7  0  0
  2  1  2  0
  3  1  1  0
  4  1  1  0
  5  4  2  0
  6  5  1  0
  7  6  2  0
  8  7  1  0
  9  8  2  0
  9  4  1  0
 10  7  1  0
M  END
$$$$
