
     RDKit          3D

 11 11  0  0  0  0  0  0  0  0999 V2000
    3.6190   -1.1260   18.6720 C   0  0  0  0  0  0  0  0  0  0  0  0
    4.4210   -0.1620   19.3040 O   0  0  0  0  0  0  0  0  0  1  0  0
    4.4270    1.1230   18.7680 C   0  0  0  0  0  0  0  0  0  2  0  0
    5.3360    2.0190   19.2900 C   0  0  0  0  0  0  0  0  0  3  0  0
    5.3790    3.3030   18.7870 C   0  0  0  0  0  0  0  0  0  4  0  0
    4.5150    3.6760   17.7700 C   0  0  0  0  0  0  0  0  0  5  0  0
    3.6020    2.7780   17.2410 C   0  0  0  0  0  0  0  0  0  9  0  0
    3.5570    1.4850   17.7470 C   0  0  0  0  0  0  0  0  0 10  0  0
    4.5620    5.0930   17.2340 C   0  0  0  0  0  0  0  0  0  6  0  0
    3.6320    5.4650   16.4710 O   0  0  0  0  0  0  0  0  0  7  0  0
    5.4960    5.8630   17.5900 O   0  0  0  0  0  0  0  0  0  8  0  0
  2  1  1  0
  3  2  1  0
  4  3  2  0
  5  4  1  0
  6  5  2  0
  7  6  1  0
  8  7  2  0
  8  3  1  0
  9  6  1  0
 10  9  2  0
 11  9  1  0
M  END
$$$$
