
     RDKit          3D

 51 57  0  0  0  0  0  0  0  0999 V2000
   42.0490  -15.5320   33.4250 C   0  0  0  0  0  0  0  0  0  0  0  0
   37.6210  -15.2030   33.6020 C   0  0  0  0  0  0  0  0  0  4  0  0
   37.6430  -18.5290   35.2360 O   0  0  0  0  0  0  0  0  0 50  0  0
   39.3270  -15.7850   32.0390 O   0  0  0  0  0  0  0  0  0  5  0  0
   24.1540  -20.7430   27.3390 F   0  0  0  0  0  0  0  0  0 41  0  0
   19.7490  -20.4820   28.6490 F   0  0  0  0  0  0  0  0  0 38  0  0
   21.9970  -20.5880   27.9870 C   0  0  0  0  0  0  0  0  0 39  0  0
   29.3970  -24.5450   32.9330 C   0  0  0  0  0  0  0  0  0 43  0  0
   30.3290  -24.2040   30.7770 C   0  0  0  0  0  0  0  0  0 20  0  0
   30.6590  -24.8590   33.4050 C   0  0  0  0  0  0  0  0  0 44  0  0
   31.5930  -24.5200   31.2570 C   0  0  0  0  0  0  0  0  0 19  0  0
   36.4380  -22.5680   32.7040 C   0  0  0  0  0  0  0  0  0 12  0  0
   37.2190  -22.8660   34.9390 C   0  0  0  0  0  0  0  0  0 47  0  0
   37.1870  -21.3970   32.5940 C   0  0  0  0  0  0  0  0  0 11  0  0
   37.9610  -21.6920   34.8110 C   0  0  0  0  0  0  0  0  0 48  0  0
   20.9220  -21.1340   28.6380 C   0  0  0  0  0  0  0  0  0 37  0  0
   24.1270  -23.7570   24.0940 C   0  0  0  0  0  0  0  0  0 32  0  0
   23.3670  -22.6030   28.6430 C   0  0  0  0  0  0  0  0  0 34  0  0
   23.5290  -24.4630   26.0640 C   0  0  0  0  0  0  0  0  0 30  0  0
   39.6970  -19.5920   32.6700 C   0  0  0  0  0  0  0  0  0  8  0  0
   41.2830  -16.1930   34.5600 C   0  0  0  0  0  0  0  0  0  1  0  0
   25.5900  -22.8880   29.8060 C   0  0  0  0  0  0  0  0  0 42  0  0
   33.3860  -25.0920   34.4910 C   0  0  0  0  0  0  0  0  0 45  0  0
   34.2100  -24.9650   32.2060 C   0  0  0  0  0  0  0  0  0 16  0  0
   34.4590  -24.0450   34.6670 C   0  0  0  0  0  0  0  0  0 46  0  0
   35.5000  -25.3580   32.9200 C   0  0  0  0  0  0  0  0  0 15  0  0
   26.9070  -24.7210   31.1100 C   0  0  0  0  0  0  0  0  0 23  0  0
   25.4640  -23.3120   27.3150 C   0  0  0  0  0  0  0  0  0 28  0  0
   23.2120  -24.4820   24.7620 N   0  0  0  0  0  0  0  0  0 31  0  0
   25.0340  -23.2670   24.9590 N   0  0  0  0  0  0  0  0  0 33  0  0
   40.1800  -18.3290   32.8860 N   0  0  0  0  0  0  0  0  0  7  0  0
   28.0120  -23.8730   31.1170 O   0  0  0  0  0  0  0  0  0 22  0  0
   24.5150  -24.7210   28.9000 O   0  0  0  0  0  0  0  0  0 26  0  0
   23.1720  -21.2910   27.9890 C   0  0  0  0  0  0  0  0  0 40  0  0
   22.2400  -23.0960   29.2780 C   0  0  0  0  0  0  0  0  0 35  0  0
   29.2270  -24.2270   31.6100 C   0  0  0  0  0  0  0  0  0 21  0  0
   31.7910  -24.8500   32.5920 C   0  0  0  0  0  0  0  0  0 18  0  0
   36.4570  -23.3280   33.8780 C   0  0  0  0  0  0  0  0  0 13  0  0
   37.9720  -20.9080   33.6430 C   0  0  0  0  0  0  0  0  0 10  0  0
   21.0430  -22.3750   29.2670 C   0  0  0  0  0  0  0  0  0 36  0  0
   38.5250  -18.6800   34.2980 C   0  0  0  0  0  0  0  0  0 49  0  0
   39.1230  -15.3580   33.3850 C   0  0  2  0  0  0  0  0  0  3  0  0
   39.7570  -16.3620   34.3600 C   0  0  1  0  0  0  0  0  0  2  0  0
   33.0760  -25.2050   33.0760 N   0  0  0  0  0  0  0  0  0 17  0  0
   35.7020  -24.4970   34.0770 N   0  0  0  0  0  0  0  0  0 14  0  0
   24.6280  -23.7280   26.1900 N   0  0  0  0  0  0  0  0  0 29  0  0
   38.6960  -19.7700   33.5440 N   0  0  0  0  0  0  0  0  0  9  0  0
   39.4200  -17.7600   33.9320 N   0  0  0  0  0  0  0  0  0  6  0  0
   24.7020  -23.3440   28.6430 C   0  0  2  0  0  0  0  0  0 27  0  0
   24.6940  -25.0260   30.2740 C   0  0  0  0  0  0  0  0  0 25  0  0
   25.6050  -23.9840   30.8650 C   0  0  2  0  0  0  0  0  0 24  0  0
 10  8  2  0
 11  9  1  0
 14 12  2  0
 15 13  1  0
 16  6  1  0
 16  7  2  0
 21  1  1  0
 25 23  1  0
 26 24  1  0
 29 19  2  0
 29 17  1  0
 30 17  2  0
 31 20  2  0
 32 27  1  0
 34 18  2  0
 34  7  1  0
 34  5  1  0
 35 18  1  0
 36 32  1  0
 36  9  2  0
 36  8  1  0
 37 11  2  0
 37 10  1  0
 38 13  2  0
 38 12  1  0
 39 14  1  0
 39 15  2  0
 40 16  1  0
 40 35  2  0
 41  3  2  0
 42  2  1  1
 42  4  1  0
 43 42  1  0
 43 21  1  6
 44 37  1  0
 44 24  1  0
 44 23  1  0
 38 45  1  0
 45 26  1  0
 45 25  1  0
 46 30  1  0
 46 19  1  0
 46 28  1  0
 47 39  1  0
 47 20  1  0
 47 41  1  0
 48 43  1  0
 48 41  1  0
 48 31  1  0
 49 33  1  0
 49 28  1  6
 49 22  1  0
 49 18  1  0
 50 33  1  0
 51 50  1  0
 51 27  1  6
 51 22  1  0
M  END
$$$$
