
     RDKit          3D

 11 12  0  0  0  0  0  0  0  0999 V2000
    2.5410    0.6820  -21.4840 C   0  0  0  0  0  0  0  0  0  7  0  0
    3.1030    0.9380  -22.6910 N   0  0  0  0  0  0  0  0  0  6  0  0
    3.5920    2.2140  -22.6390 C   0  0  0  0  0  0  0  0  0  5  0  0
    2.5620    1.7410  -20.6950 N   0  0  0  0  0  0  0  0  0  8  0  0
    3.2200    2.7290  -21.4300 C   0  0  0  0  0  0  0  0  0  4  0  0
    3.4780    4.0370  -20.8460 C   0  0  0  0  0  0  0  0  0  3  0  0
    4.5870    4.7760  -21.2500 C   0  0  0  0  0  0  0  0  0  9  0  0
    2.6750    4.5300  -19.8350 C   0  0  0  0  0  0  0  0  0  2  0  0
    2.9290    5.7780  -19.3040 C   0  0  0  0  0  0  0  0  0  1  0  0
    4.0330    6.4990  -19.6930 C   0  0  0  0  0  0  0  0  0  0  0  0
    4.8430    6.0190  -20.6940 C   0  0  0  0  0  0  0  0  0 10  0  0
  2  1  1  0
  3  2  1  0
  4  1  2  0
  5  3  2  0
  5  4  1  0
  6  5  1  0
  6  7  2  0
  8  6  1  0
  9  8  2  0
 10  9  1  0
 11  7  1  0
 11 10  2  0
M  END
$$$$
