
     RDKit          3D

 10 10  0  0  0  0  0  0  0  0999 V2000
   41.0590   79.3130   41.8680 C   0  0  0  0  0  0  0  0  0  0  0  0
   41.7390   79.9620   40.6830 C   0  0  0  0  0  0  0  0  0  1  0  0
   42.2810   78.9530   39.8800 O   0  0  0  0  0  0  0  0  0  2  0  0
   42.7470   79.4010   38.6580 C   0  0  0  0  0  0  0  0  0  3  0  0
   42.8510   80.7550   38.3600 C   0  0  0  0  0  0  0  0  0  4  0  0
   43.3320   81.1210   37.1090 C   0  0  0  0  0  0  0  0  0  5  0  0
   43.7100   80.1460   36.1940 C   0  0  0  0  0  0  0  0  0  6  0  0
   43.6020   78.7860   36.5110 C   0  0  0  0  0  0  0  0  0  7  0  0
   43.1150   78.4360   37.7500 C   0  0  0  0  0  0  0  0  0  8  0  0
   42.9690   77.1090   38.1560 O   0  0  0  0  0  0  0  0  0  9  0  0
  2  1  1  0
  3  2  1  0
  4  3  1  0
  5  4  2  0
  6  5  1  0
  7  6  2  0
  8  7  1  0
  9  4  1  0
  9  8  2  0
 10  9  1  0
M  END
$$$$
