
     RDKit          3D

 11 12  0  0  0  0  0  0  0  0999 V2000
   53.7300   20.6550   12.7120 N   0  0  0  0  0  0  0  0  0  8  0  0
   54.8820   21.1880   13.2950 C   0  0  0  0  0  0  0  0  0  7  0  0
   55.3440   20.3610   14.0900 N   0  0  0  0  0  0  0  0  0  6  0  0
   54.5920   19.2690   14.1110 C   0  0  0  0  0  0  0  0  0  5  0  0
   53.5620   19.4310   13.2460 C   0  0  0  0  0  0  0  0  0  4  0  0
   52.4090   18.5110   12.8760 C   0  0  0  0  0  0  0  0  0  3  0  0
   51.3410   19.0360   12.0710 C   0  0  0  0  0  0  0  0  0  2  0  0
   50.2380   18.1620   11.7220 C   0  0  0  0  0  0  0  0  0  1  0  0
   50.2530   16.8220   12.1830 C   0  0  0  0  0  0  0  0  0  0  0  0
   51.3110   16.3060   12.9770 C   0  0  0  0  0  0  0  0  0 10  0  0
   52.3850   17.1970   13.3080 C   0  0  0  0  0  0  0  0  0  9  0  0
  2  1  1  0
  3  2  2  0
  4  3  1  0
  5  1  1  0
  5  4  2  0
  6  5  1  0
  7  6  2  0
  8  7  1  0
  9  8  2  0
 10  9  1  0
 11 10  2  0
 11  6  1  0
M  END
$$$$
