
     RDKit          3D

 12 13  0  0  0  0  0  0  0  0999 V2000
  -15.7070  -59.1730  -11.6130 C   0  0  0  0  0  0  0  0  0  3  0  0
  -15.4020  -59.4200  -12.9680 C   0  0  0  0  0  0  0  0  0  2  0  0
  -14.6700  -60.5470  -13.2860 C   0  0  0  0  0  0  0  0  0  1  0  0
  -14.2150  -61.4330  -12.3040 C   0  0  0  0  0  0  0  0  0 11  0  0
  -14.5260  -61.1820  -10.9600 C   0  0  0  0  0  0  0  0  0 10  0  0
  -15.2690  -60.0580  -10.6320 C   0  0  0  0  0  0  0  0  0  4  0  0
  -15.5910  -59.7900   -9.2320 C   0  0  0  0  0  0  0  0  0  5  0  0
  -16.1810  -58.6930   -8.6080 C   0  0  0  0  0  0  0  0  0  6  0  0
  -16.2990  -58.8890   -7.2170 N   0  0  0  0  0  0  0  0  0  7  0  0
  -15.7550  -60.1270   -7.0200 C   0  0  0  0  0  0  0  0  0  8  0  0
  -15.3230  -60.6930   -8.2030 N   0  0  0  0  0  0  0  0  0  9  0  0
  -14.2750  -60.8550  -14.9860 Cl  0  0  0  0  0  0  0  0  0  0  0  0
  2  1  2  0
  3  2  1  0
  4  3  2  0
  5  4  1  0
  6  5  2  0
  6  1  1  0
  7  6  1  0
  8  7  2  0
  9  8  1  0
 10  9  2  0
 11 10  1  0
 11  7  1  0
 12  3  1  0
M  END
$$$$
