
     RDKit          3D

 12 13  0  0  0  0  0  0  0  0999 V2000
   31.3290    1.3200   -6.3320 C   0  0  0  0  0  0  0  0  0  6  0  0
   30.3830    2.2770   -6.6670 C   0  0  0  0  0  0  0  0  0  5  0  0
   31.4210    2.8130   -4.7630 C   0  0  0  0  0  0  0  0  0  8  0  0
   29.4480    2.3030   -7.7790 C   0  0  0  0  0  0  0  0  0  4  0  0
   28.3690    3.1990   -7.7560 C   0  0  0  0  0  0  0  0  0 10  0  0
   29.6190    1.3900   -8.8080 C   0  0  0  0  0  0  0  0  0  3  0  0
   28.6950    1.3860   -9.8710 C   0  0  0  0  0  0  0  0  0  2  0  0
   27.6430    2.2880   -9.8240 C   0  0  0  0  0  0  0  0  0  1  0  0
   27.4590    3.1920   -8.7970 C   0  0  0  0  0  0  0  0  0 11  0  0
   31.9950    1.6450   -5.1520 N   0  0  0  0  0  0  0  0  0  7  0  0
   30.4380    3.2060   -5.6380 N   0  0  0  0  0  0  0  0  0  9  0  0
   26.7480    2.2960  -10.8210 F   0  0  0  0  0  0  0  0  0  0  0  0
  2  1  2  0
  4  2  1  0
  4  5  2  0
  6  4  1  0
  7  6  2  0
  8  7  1  0
  9  8  2  0
  9  5  1  0
 10  1  1  0
 10  3  1  0
 11  2  1  0
 11  3  2  0
 12  8  1  0
M  END
$$$$
