
     RDKit          3D

 48 50  0  0  0  0  0  0  0  0999 V2000
   20.6540  -30.2350    4.4120 N   0  0  0  0  0  0  0  0  0 18  0  0
   15.1080  -21.9400   12.2170 C   0  0  0  0  0  0  0  0  0 33  0  0
   20.2580  -22.4390   11.2930 O   0  0  0  0  0  0  0  0  0 29  0  0
   15.9960  -21.6950   11.2160 C   0  0  0  0  0  0  0  0  0 32  0  0
   19.2880  -26.6740    7.3300 O   0  0  0  0  0  0  0  0  0 11  0  0
   17.4470  -21.9510   11.3480 C   0  0  0  0  0  0  0  0  0 31  0  0
   18.8710  -28.2810    5.0110 O   0  0  0  0  0  0  0  0  0 22  0  0
   18.1810  -22.0520   10.2280 C   0  0  0  0  0  0  0  0  0 30  0  0
   20.8150  -28.3010    8.0740 O   0  0  0  0  0  0  0  0  0 13  0  0
   19.6440  -22.3950   10.2390 C   0  0  0  0  0  0  0  0  0 28  0  0
   14.7700  -25.0210   11.5820 O   0  0  0  0  0  0  0  0  0  5  0  0
   20.3890  -22.7880    8.9860 C   0  0  2  0  0  0  0  0  0 26  0  0
   13.6140  -23.4450   10.3000 O   0  0  0  0  0  0  0  0  0  3  0  0
   20.5420  -21.6430    8.0270 C   0  0  0  0  0  0  0  0  0 27  0  0
   13.3590  -20.1150   13.7760 O   0  0  0  0  0  0  0  0  0 36  0  0
   19.6770  -23.9690    8.2590 C   0  0  0  0  0  0  0  0  0 25  0  0
   14.7060  -18.4200   15.5920 O   0  0  0  0  0  0  0  0  0 46  0  0
   19.3830  -25.1370    9.2270 C   0  0  2  0  0  0  0  0  0 23  0  0
   13.8070  -18.8830   17.8290 O   0  0  0  0  0  0  0  0  0 44  0  0
   20.6260  -25.6810    9.9950 C   0  0  0  0  0  0  0  0  0 24  0  0
   11.1620  -18.7380   18.7060 O   0  0  0  0  0  0  0  0  0 42  0  0
   18.6310  -26.2670    8.5200 C   0  0  1  0  0  0  0  0  0 10  0  0
   11.6130  -20.3760   15.3830 O   0  0  0  0  0  0  0  0  0 38  0  0
   19.6560  -28.0830    7.2640 C   0  0  2  0  0  0  0  0  0 12  0  0
   20.0260  -28.4090    5.8400 C   0  0  1  0  0  0  0  0  0 21  0  0
   20.4780  -29.8770    5.8150 C   0  0  2  0  0  0  0  0  0 17  0  0
   21.7260  -29.6710    3.5710 C   0  0  0  0  0  0  0  0  0 19  0  0
   20.2420  -31.5800    4.1030 C   0  0  0  0  0  0  0  0  0 20  0  0
   21.7370  -30.0700    6.6410 C   0  0  0  0  0  0  0  0  0 16  0  0
   21.3550  -29.6540    8.0730 C   0  0  1  0  0  0  0  0  0 14  0  0
   22.5050  -29.7340    9.0730 C   0  0  0  0  0  0  0  0  0 15  0  0
   17.2000  -25.9070    8.1020 C   0  0  1  0  0  0  0  0  0  8  0  0
   16.4750  -27.1280    7.4720 C   0  0  0  0  0  0  0  0  0  9  0  0
   16.4280  -25.6380    9.3630 C   0  0  0  0  0  0  0  0  0  7  0  0
   15.4560  -24.7270    9.3020 C   0  0  0  0  0  0  0  0  0  6  0  0
   14.6330  -24.4590   10.4920 C   0  0  0  0  0  0  0  0  0  4  0  0
   12.9200  -22.9710   11.4440 C   0  0  2  0  0  0  0  0  0  2  0  0
   11.4790  -22.7540   11.0010 C   0  0  0  0  0  0  0  0  0  1  0  0
   10.9600  -24.0570   10.4560 C   0  0  0  0  0  0  0  0  0  0  0  0
   13.6080  -21.6950   11.9670 C   0  0  1  0  0  0  0  0  0 34  0  0
   12.8790  -21.3510   13.2480 C   0  0  0  0  0  0  0  0  0 35  0  0
   12.9980  -19.9970   15.1420 C   0  0  2  0  0  0  0  0  0 37  0  0
   13.2890  -18.5600   15.5400 C   0  0  1  0  0  0  0  0  0 45  0  0
   15.3330  -18.1880   14.3300 C   0  0  0  0  0  0  0  0  0 47  0  0
   12.8130  -18.2960   16.9670 C   0  0  1  0  0  0  0  0  0 43  0  0
   11.4100  -18.8520   17.2820 C   0  0  1  0  0  0  0  0  0 41  0  0
   11.1790  -20.2890   16.7610 C   0  0  1  0  0  0  0  0  0 39  0  0
    9.6900  -20.6380   16.8550 C   0  0  0  0  0  0  0  0  0 40  0  0
  4  2  2  3
  6  4  1  0
  8  6  2  3
 10  8  1  0
 10  3  2  0
 12 10  1  0
 12 14  1  6
 16 12  1  0
 18 16  1  0
 18 20  1  6
 22 18  1  0
 22  5  1  6
 24  9  1  0
 24  5  1  6
 25  7  1  6
 25 24  1  0
 26  1  1  6
 26 25  1  0
 27  1  1  0
 28  1  1  0
 29 26  1  0
 30 29  1  0
 30  9  1  0
 30 31  1  1
 32 22  1  0
 32 33  1  1
 34 32  1  0
 35 34  2  3
 36 35  1  0
 36 13  1  0
 36 11  2  0
 37 13  1  0
 37 38  1  6
 39 38  1  0
 40 37  1  0
 40  2  1  0
 40 41  1  1
 41 15  1  0
 42 23  1  0
 42 15  1  6
 43 42  1  0
 43 17  1  1
 44 17  1  0
 45 43  1  0
 45 19  1  1
 46 45  1  0
 46 21  1  1
 47 23  1  0
 47 46  1  0
 47 48  1  6
M  END
$$$$
