
     RDKit          3D

 25 28  0  0  0  0  0  0  0  0999 V2000
   47.7330   16.2050   15.7470 Cl  0  0  0  0  0  0  0  0  0  0  0  0
   48.3810   15.3480   17.2030 C   0  0  0  0  0  0  0  0  0  1  0  0
   48.1840   13.9840   17.3670 C   0  0  0  0  0  0  0  0  0  2  0  0
   48.6820   13.3570   18.4870 C   0  0  0  0  0  0  0  0  0  3  0  0
   49.3900   14.0680   19.4420 C   0  0  0  0  0  0  0  0  0  4  0  0
   49.6150   15.4360   19.3270 C   0  0  0  0  0  0  0  0  0  5  0  0
   49.1240   16.1320   18.2190 C   0  0  0  0  0  0  0  0  0  6  0  0
   49.2130   17.5610   17.8400 C   0  0  1  0  0  0  0  0  0  7  0  0
   50.3780   18.0720   17.0660 C   0  0  0  0  0  0  0  0  0  8  0  0
   51.0120   19.3050   17.2510 C   0  0  0  0  0  0  0  0  0  9  0  0
   52.0720   19.7080   16.4230 C   0  0  0  0  0  0  0  0  0 10  0  0
   52.5110   18.9050   15.3860 C   0  0  0  0  0  0  0  0  0 11  0  0
   51.8800   17.6900   15.1780 C   0  0  0  0  0  0  0  0  0 12  0  0
   50.8300   17.2860   16.0030 C   0  0  0  0  0  0  0  0  0 13  0  0
   47.9110   18.2430   17.6600 N   0  0  0  0  0  0  0  0  0 20  0  0
   46.7410   17.8540   18.2010 C   0  0  0  0  0  0  0  0  0 24  0  0
   45.8150   18.7300   17.7260 N   0  0  0  0  0  0  0  0  0 23  0  0
   46.4250   19.5990   16.8750 C   0  0  0  0  0  0  0  0  0 22  0  0
   47.7630   19.2750   16.8130 C   0  0  0  0  0  0  0  0  0 21  0  0
   49.5980   18.0900   19.2550 C   0  0  0  0  0  0  0  0  0 14  0  0
   48.7280   18.8510   20.0780 C   0  0  0  0  0  0  0  0  0 15  0  0
   49.0890   19.3170   21.3470 C   0  0  0  0  0  0  0  0  0 16  0  0
   50.3400   19.0400   21.8610 C   0  0  0  0  0  0  0  0  0 17  0  0
   51.2330   18.2980   21.0950 C   0  0  0  0  0  0  0  0  0 18  0  0
   50.8740   17.8370   19.8190 C   0  0  0  0  0  0  0  0  0 19  0  0
  2  1  1  0
  3  2  2  0
  4  3  1  0
  5  4  2  0
  6  5  1  0
  7  2  1  0
  7  6  2  0
  8  7  1  0
  9  8  1  0
  9 10  2  0
 11 10  1  0
 12 11  2  0
 13 12  1  0
 14 13  2  0
 14  9  1  0
  8 15  1  6
 16 15  1  0
 17 16  2  0
 18 17  1  0
 19 18  2  0
 19 15  1  0
 20  8  1  0
 21 20  2  0
 22 21  1  0
 23 22  2  0
 24 23  1  0
 25 24  2  0
 25 20  1  0
M  END
$$$$
