
     RDKit          3D

 10  9  0  0  0  0  0  0  0  0999 V2000
    9.4600    5.6190    1.3310 C   0  0  0  0  0  0  0  0  0  7  0  0
    9.5250    4.1530    1.7840 C   0  0  0  0  0  0  0  0  0  6  0  0
   10.9410    3.5850    1.5500 C   0  0  0  0  0  0  0  0  0  5  0  0
   11.1690    2.1290    2.0130 C   0  0  0  0  0  0  0  0  0  4  0  0
   12.3100    1.4590    1.2020 C   0  0  0  0  0  0  0  0  0  3  0  0
   12.6380    2.2110   -0.1080 C   0  0  0  0  0  0  0  0  0  2  0  0
   13.1470    1.2850   -1.2340 C   0  0  0  0  0  0  0  0  0  1  0  0
   13.4810    2.0790   -2.5130 C   0  0  0  0  0  0  0  0  0  0  0  0
    9.2020    5.8480    0.1640 O   0  0  0  0  0  0  0  0  0  8  0  0
    9.6820    6.4850    2.1600 O   0  0  0  0  0  0  0  0  0  9  0  0
  2  1  1  0
  3  2  1  0
  4  3  1  0
  5  4  1  0
  6  5  1  0
  7  6  1  0
  8  7  1  0
  9  1  2  0
 10  1  1  0
M  END
$$$$
