
     RDKit          3D

 27 30  0  0  0  0  0  0  0  0999 V2000
  -72.3890  -27.6980   21.2540 C   0  0  0  0  0  0  0  0  0 19  0  0
  -71.2580  -27.7650   20.2100 C   0  0  1  0  0  0  0  0  0 20  0  0
  -72.5510  -29.4750   18.7720 C   0  0  0  0  0  0  0  0  0 23  0  0
  -72.5250  -30.8420   18.0810 C   0  0  0  0  0  0  0  0  0 24  0  0
  -71.3530  -30.9670   17.1040 C   0  0  1  0  0  0  0  0  0 25  0  0
  -70.0700  -30.6660   17.9020 C   0  0  1  0  0  0  0  0  0 10  0  0
  -68.9430  -31.0830   16.9660 C   0  0  0  0  0  0  0  0  0  9  0  0
  -69.5110  -32.3200   16.2450 C   0  0  0  0  0  0  0  0  0  8  0  0
  -71.0170  -32.4020   16.6100 C   0  0  2  0  0  0  0  0  0  7  0  0
  -71.5310  -30.0140   15.9100 C   0  0  0  0  0  0  0  0  0 26  0  0
  -71.4790  -26.6220   19.2010 C   0  0  0  0  0  0  0  0  0 21  0  0
  -70.7150  -29.3550   24.1950 O   0  0  0  0  0  0  0  0  0 17  0  0
  -72.2070  -28.6540   22.4270 C   0  0  0  0  0  0  0  0  0 18  0  0
  -71.8460  -33.0720   15.5010 C   0  0  2  0  0  0  0  0  0  1  0  0
  -73.3500  -32.8680   15.6440 C   0  0  0  0  0  0  0  0  0  0  0  0
  -71.5180  -34.5700   15.4670 C   0  0  0  0  0  0  0  0  0  2  0  0
  -71.5380  -35.1850   14.0840 C   0  0  0  0  0  0  0  0  0  3  0  0
  -71.0450  -36.6170   14.1130 C   0  0  0  0  0  0  0  0  0  4  0  0
  -70.8920  -28.4070   23.1280 C   0  0  2  0  0  0  0  0  0 16  0  0
  -69.7540  -28.5240   22.1450 C   0  0  0  0  0  0  0  0  0 15  0  0
  -71.7750  -37.5020   13.6330 O   0  0  0  0  0  0  0  0  0  5  0  0
  -69.9280  -36.8360   14.6070 O   0  0  0  0  0  0  0  0  0  6  0  0
  -69.9070  -27.5790   20.9510 C   0  0  1  0  0  0  0  0  0 14  0  0
  -68.7210  -27.6990   20.0020 C   0  0  0  0  0  0  0  0  0 13  0  0
  -68.7230  -29.0470   19.2910 C   0  0  0  0  0  0  0  0  0 12  0  0
  -70.0270  -29.2820   18.5360 C   0  0  2  0  0  0  0  0  0 11  0  0
  -71.2370  -29.1380   19.4850 C   0  0  1  0  0  0  0  0  0 22  0  0
  2  1  1  0
  4  3  1  0
  5  4  1  0
  6  5  1  0
  6  7  1  6
  8  7  1  0
  9  5  1  0
  9  8  1  6
  5 10  1  6
  2 11  1  6
 13  1  1  0
 14  9  1  0
 14 15  1  1
 16 14  1  0
 17 16  1  0
 18 17  1  0
 19 13  1  0
 19 12  1  1
 20 19  1  0
 21 18  2  0
 22 18  1  0
 23  2  1  0
 23 20  1  1
 24 23  1  0
 25 24  1  0
 26 25  1  1
 26  6  1  0
 27  3  1  6
 27  2  1  0
 27 26  1  0
M  END
$$$$
