
     RDKit          3D

 23 26  0  0  0  0  0  0  0  0999 V2000
   38.9640   -6.6470  -12.8250 C   0  0  0  0  0  0  0  0  0 15  0  0
   40.2710   -6.8350  -12.0680 C   0  0  0  0  0  0  0  0  0 14  0  0
   41.4070   -7.1840  -13.0150 C   0  0  2  0  0  0  0  0  0 12  0  0
   42.5820   -7.5410  -12.2800 O   0  0  0  0  0  0  0  0  0 13  0  0
   41.6290   -5.9680  -13.8930 C   0  0  0  0  0  0  0  0  0 11  0  0
   40.3450   -5.7110  -14.6760 C   0  0  0  0  0  0  0  0  0 10  0  0
   40.4170   -5.6090  -16.0200 C   0  0  0  0  0  0  0  0  0  9  0  0
   39.2310   -5.3510  -16.9170 C   0  0  0  0  0  0  0  0  0  8  0  0
   37.9710   -4.9700  -16.1700 C   0  0  2  0  0  0  0  0  0  7  0  0
   37.8610   -5.7700  -14.8630 C   0  0  1  0  0  0  0  0  0 18  0  0
   39.0500   -5.5720  -13.9250 C   0  0  1  0  0  0  0  0  0 16  0  0
   36.5250   -5.4760  -14.1730 C   0  0  0  0  0  0  0  0  0 19  0  0
   35.3060   -5.6680  -15.0870 C   0  0  0  0  0  0  0  0  0 20  0  0
   35.4570   -4.9580  -16.4260 C   0  0  1  0  0  0  0  0  0 21  0  0
   36.7730   -5.3540  -17.0190 C   0  0  1  0  0  0  0  0  0  6  0  0
   36.7000   -4.8790  -18.4520 C   0  0  0  0  0  0  0  0  0  5  0  0
   35.2420   -5.1380  -18.8350 C   0  0  0  0  0  0  0  0  0  4  0  0
   34.5120   -5.4580  -17.5120 C   0  0  2  0  0  0  0  0  0  3  0  0
   35.3570   -3.4540  -16.2600 C   0  0  0  0  0  0  0  0  0 22  0  0
   39.0670   -4.1700  -13.3120 C   0  0  0  0  0  0  0  0  0 17  0  0
   33.1120   -4.8870  -17.4150 C   0  0  0  0  0  0  0  0  0  1  0  0
   32.6350   -3.8560  -18.3980 C   0  0  0  0  0  0  0  0  0  0  0  0
   32.3750   -5.2800  -16.5250 O   0  0  0  0  0  0  0  0  0  2  0  0
  2  1  1  0
  3  2  1  0
  3  4  1  1
  5  3  1  0
  6  5  1  0
  7  6  2  0
  8  7  1  0
  9  8  1  6
 10  9  1  0
 11 10  1  0
 11  6  1  0
 11  1  1  0
 10 12  1  1
 13 12  1  0
 14 13  1  0
 15 14  1  0
 15  9  1  0
 15 16  1  6
 17 16  1  0
 18 17  1  0
 18 14  1  0
 14 19  1  1
 11 20  1  1
 18 21  1  6
 22 21  1  0
 23 21  2  0
M  END
$$$$
