
     RDKit          3D

 23 26  0  0  0  0  0  0  0  0999 V2000
  -24.8770  -28.8560   12.9920 C   0  0  0  0  0  0  0  0  0 15  0  0
  -25.5500  -27.7770   12.1610 C   0  0  0  0  0  0  0  0  0 14  0  0
  -26.4330  -26.9970   13.0190 C   0  0  0  0  0  0  0  0  0 12  0  0
  -27.4830  -26.5410   12.5750 O   0  0  0  0  0  0  0  0  0 13  0  0
  -26.0630  -26.7890   14.4320 C   0  0  0  0  0  0  0  0  0 11  0  0
  -24.9520  -27.3240   14.9540 C   0  0  0  0  0  0  0  0  0 10  0  0
  -24.5760  -26.9260   16.3670 C   0  0  0  0  0  0  0  0  0  9  0  0
  -24.2150  -28.1750   17.1500 C   0  0  0  0  0  0  0  0  0  8  0  0
  -23.1680  -29.0220   16.4120 C   0  0  2  0  0  0  0  0  0  7  0  0
  -23.7010  -29.4560   15.0530 C   0  0  1  0  0  0  0  0  0 18  0  0
  -24.0730  -28.2750   14.1620 C   0  0  1  0  0  0  0  0  0 16  0  0
  -22.7560  -30.4660   14.3670 C   0  0  0  0  0  0  0  0  0 19  0  0
  -22.3920  -31.6720   15.2510 C   0  0  0  0  0  0  0  0  0 20  0  0
  -21.8900  -31.2330   16.6140 C   0  0  1  0  0  0  0  0  0 21  0  0
  -22.9100  -30.2750   17.2100 C   0  0  1  0  0  0  0  0  0  6  0  0
  -22.4770  -30.1140   18.6690 C   0  0  0  0  0  0  0  0  0  5  0  0
  -22.0470  -31.5380   19.0490 C   0  0  0  0  0  0  0  0  0  4  0  0
  -21.8760  -32.3040   17.6910 C   0  0  2  0  0  0  0  0  0  3  0  0
  -20.4540  -30.6440   16.4590 C   0  0  0  0  0  0  0  0  0 22  0  0
  -22.8440  -27.5160   13.6510 C   0  0  0  0  0  0  0  0  0 17  0  0
  -20.6470  -33.2050   17.6190 C   0  0  0  0  0  0  0  0  0  1  0  0
  -20.6470  -34.1340   16.8220 O   0  0  0  0  0  0  0  0  0  2  0  0
  -19.4450  -32.9510   18.4700 C   0  0  0  0  0  0  0  0  0  0  0  0
  2  1  1  0
  3  2  1  0
  4  3  2  0
  5  3  1  0
  6  5  2  0
  7  6  1  0
  8  7  1  0
  9  8  1  1
 10  9  1  0
 11 10  1  0
 11  6  1  0
 11  1  1  0
 10 12  1  6
 13 12  1  0
 14 13  1  0
 15 14  1  0
 15  9  1  0
 15 16  1  1
 17 16  1  0
 18 17  1  0
 18 14  1  0
 14 19  1  6
 11 20  1  6
 18 21  1  1
 22 21  2  0
 23 21  1  0
M  END
$$$$
