
     RDKit          3D

 11 11  0  0  0  0  0  0  0  0999 V2000
   12.8350    0.4870   12.1960 C   0  0  0  0  0  0  0  0  0  0  0  0
   12.2560    0.7570   10.9160 O   0  0  0  0  0  0  0  0  0  1  0  0
   12.4300   -0.0980    9.8490 C   0  0  0  0  0  0  0  0  0  2  0  0
   11.9270    0.2870    8.6060 C   0  0  0  0  0  0  0  0  0  3  0  0
   12.1570   -0.5600    7.5160 C   0  0  0  0  0  0  0  0  0  4  0  0
   12.8480   -1.7650    7.7100 C   0  0  0  0  0  0  0  0  0  5  0  0
   13.3650   -2.1270    8.9510 C   0  0  0  0  0  0  0  0  0  9  0  0
   13.1520   -1.2530   10.0080 C   0  0  0  0  0  0  0  0  0 10  0  0
   13.0810   -2.7220    6.5880 C   0  0  0  0  0  0  0  0  0  6  0  0
   13.5130   -3.8970    6.8140 O   0  0  0  0  0  0  0  0  0  7  0  0
   12.7860   -2.2910    5.4670 O   0  0  0  0  0  0  0  0  0  8  0  0
  2  1  1  0
  3  2  1  0
  4  3  2  0
  5  4  1  0
  6  5  2  0
  7  6  1  0
  8  7  2  0
  8  3  1  0
  9  6  1  0
 10  9  2  0
 11  9  1  0
M  END
$$$$
