
     RDKit          3D

 32 35  0  0  0  0  0  0  0  0999 V2000
   15.5700    9.9470  -21.2000 C   0  0  0  0  0  0  0  0  0 21  0  0
   14.3930    9.4520  -21.7400 C   0  0  0  0  0  0  0  0  0 22  0  0
   13.4220   10.3200  -22.2180 C   0  0  0  0  0  0  0  0  0 23  0  0
   12.2390    9.8200  -22.7560 C   0  0  2  0  0  0  0  0  0 24  0  0
   11.9210    8.6730  -22.1670 F   0  0  0  0  0  0  0  0  0 25  0  0
   12.3920    9.6030  -24.0590 F   0  0  0  0  0  0  0  0  0 26  0  0
   11.2650   10.7040  -22.5640 F   0  0  0  0  0  0  0  0  0 27  0  0
   13.6550   11.6870  -22.1480 C   0  0  0  0  0  0  0  0  0 28  0  0
   14.8340   12.1910  -21.6110 C   0  0  0  0  0  0  0  0  0 29  0  0
   15.7920   11.3130  -21.1270 C   0  0  0  0  0  0  0  0  0 20  0  0
   16.9520   11.7360  -20.6120 N   0  0  0  0  0  0  0  0  0 19  0  0
   17.0020   12.7280  -19.5150 C   0  0  0  0  0  0  0  0  0 30  0  0
   18.4040   12.8550  -18.9160 C   0  0  0  0  0  0  0  0  0 31  0  0
   18.1930   11.1510  -21.1530 C   0  0  0  0  0  0  0  0  0 18  0  0
   19.2570   12.2360  -21.2600 C   0  0  0  0  0  0  0  0  0 17  0  0
   19.4360   12.9440  -19.9700 N   0  0  0  0  0  0  0  0  0 16  0  0
   20.5620   13.6470  -19.8070 C   0  0  0  0  0  0  0  0  0  1  0  0
   21.4200   13.7240  -20.6770 O   0  0  0  0  0  0  0  0  0  0  0  0
   20.7580   14.3870  -18.4860 C   0  0  1  0  0  0  0  0  0  2  0  0
   22.1040   14.3520  -18.1390 C   0  0  0  0  0  0  0  0  0  3  0  0
   22.5830   13.2300  -17.4810 C   0  0  0  0  0  0  0  0  0  4  0  0
   23.9200   13.1350  -17.1200 C   0  0  0  0  0  0  0  0  0  5  0  0
   24.8010   14.1610  -17.4270 C   0  0  0  0  0  0  0  0  0  6  0  0
   26.4550   14.0310  -16.9680 Cl  0  0  0  0  0  0  0  0  0  7  0  0
   24.3270   15.2840  -18.0900 C   0  0  0  0  0  0  0  0  0  8  0  0
   22.9890   15.3750  -18.4500 C   0  0  0  0  0  0  0  0  0  9  0  0
   20.2910   15.6930  -18.5500 C   0  0  0  0  0  0  0  0  0 10  0  0
   19.8540   16.3110  -19.7130 C   0  0  0  0  0  0  0  0  0 11  0  0
   19.3940   17.6180  -19.6990 C   0  0  0  0  0  0  0  0  0 12  0  0
   19.3680   18.3210  -18.5090 C   0  0  0  0  0  0  0  0  0 13  0  0
   19.7960   17.7020  -17.3380 N   0  0  0  0  0  0  0  0  0 14  0  0
   20.2610   16.3920  -17.3580 C   0  0  0  0  0  0  0  0  0 15  0  0
  2  1  2  0
  3  2  1  0
  4  3  1  0
  4  5  1  1
  6  4  1  0
  7  4  1  0
  8  3  2  0
  9  8  1  0
 10  1  1  0
 10  9  2  0
 11 10  1  0
 12 11  1  0
 13 12  1  0
 14 11  1  0
 15 14  1  0
 16 15  1  0
 16 13  1  0
 17 16  1  0
 18 17  2  0
 19 17  1  6
 20 19  1  0
 21 20  2  0
 22 21  1  0
 23 22  2  0
 24 23  1  0
 25 23  1  0
 26 25  2  0
 26 20  1  0
 27 19  1  0
 28 27  2  0
 29 28  1  0
 30 29  2  0
 31 30  1  0
 32 27  1  0
 32 31  2  0
M  END
$$$$
