
     RDKit          3D

 46 51  0  0  0  0  0  0  0  0999 V2000
  -11.7800    5.7520  -19.3060 C   0  0  0  0  0  0  0  0  0 18  0  0
    3.0510   17.9420  -21.6700 F   0  0  0  0  0  0  0  0  0 38  0  0
  -11.4470    3.5300  -18.3940 N   0  0  0  0  0  0  0  0  0 20  0  0
   -9.6960   10.2990  -20.0500 O   0  0  0  0  0  0  0  0  0  0  0  0
  -11.9800    4.3770  -19.3140 C   0  0  0  0  0  0  0  0  0 19  0  0
    1.5160   18.8340  -22.8700 F   0  0  0  0  0  0  0  0  0 36  0  0
  -10.8180    7.6930  -18.0940 N   0  0  0  0  0  0  0  0  0 16  0  0
  -12.6200    8.5720  -19.2500 O   0  0  0  0  0  0  0  0  0 15  0  0
  -10.6780    4.0830  -17.4330 C   0  0  0  0  0  0  0  0  0 21  0  0
    1.9050   19.4640  -20.8960 F   0  0  0  0  0  0  0  0  0 37  0  0
   -9.9930   10.5410  -17.8070 N   0  0  0  0  0  0  0  0  0  2  0  0
  -10.4980    5.4700  -17.3450 C   0  0  0  0  0  0  0  0  0 22  0  0
   -8.1880   12.2670  -16.7110 F   0  0  0  0  0  0  0  0  0 45  0  0
   -4.0910   13.0160  -18.8840 N   0  0  0  0  0  0  0  0  0 27  0  0
  -11.0170    6.3410  -18.2880 C   0  0  0  0  0  0  0  0  0 17  0  0
   -1.9090   14.6380  -19.5510 N   0  0  0  0  0  0  0  0  0 30  0  0
  -11.6190    8.6950  -18.5000 C   0  0  0  0  0  0  0  0  0 14  0  0
  -10.3300    8.3670  -13.9900 N   0  0  0  0  0  0  0  0  0  7  0  0
  -11.3620   10.0800  -17.9160 C   0  0  1  0  0  0  0  0  0  3  0  0
   -9.2560   10.6440  -18.9060 C   0  0  0  0  0  0  0  0  0  1  0  0
   -7.9040   11.2200  -18.8550 C   0  0  0  0  0  0  0  0  0 23  0  0
   -7.0610   11.0650  -19.9410 C   0  0  0  0  0  0  0  0  0 24  0  0
   -5.7770   11.6110  -19.9190 C   0  0  0  0  0  0  0  0  0 25  0  0
   -5.3500   12.4150  -18.8490 C   0  0  0  0  0  0  0  0  0 26  0  0
   -3.6360   13.8840  -17.8570 C   0  0  0  0  0  0  0  0  0 28  0  0
   -2.8230   15.0010  -18.4690 C   0  0  0  0  0  0  0  0  0 29  0  0
   -0.9420   15.5470  -20.0150 C   0  0  0  0  0  0  0  0  0 31  0  0
   -0.7680   16.7990  -19.4650 C   0  0  0  0  0  0  0  0  0 32  0  0
    0.1120   17.7480  -19.9820 C   0  0  0  0  0  0  0  0  0 33  0  0
    0.8720   17.4350  -21.0690 C   0  0  0  0  0  0  0  0  0 34  0  0
    1.8500   18.4180  -21.6590 C   0  0  2  0  0  0  0  0  0 35  0  0
    0.7170   16.2170  -21.6550 C   0  0  0  0  0  0  0  0  0 39  0  0
   -0.1750   15.2710  -21.1400 C   0  0  0  0  0  0  0  0  0 40  0  0
   -2.0470   13.4420  -20.3450 C   0  0  0  0  0  0  0  0  0 41  0  0
   -3.2910   12.6730  -20.0620 C   0  0  0  0  0  0  0  0  0 42  0  0
   -6.2080   12.6350  -17.7760 C   0  0  0  0  0  0  0  0  0 43  0  0
   -7.4360   12.0510  -17.7590 C   0  0  0  0  0  0  0  0  0 44  0  0
  -12.0740   10.2750  -16.5880 C   0  0  0  0  0  0  0  0  0  4  0  0
  -11.6280    9.2750  -15.5930 C   0  0  0  0  0  0  0  0  0  5  0  0
  -10.5030    9.4620  -14.7910 C   0  0  0  0  0  0  0  0  0  6  0  0
  -11.2760    7.4420  -14.2090 C   0  0  0  0  0  0  0  0  0  8  0  0
  -12.1720    7.9540  -15.2260 C   0  0  0  0  0  0  0  0  0 13  0  0
  -13.2760    7.2470  -15.6510 C   0  0  0  0  0  0  0  0  0 12  0  0
  -13.4670    6.0210  -15.0320 C   0  0  0  0  0  0  0  0  0 11  0  0
  -12.5990    5.4880  -14.0860 C   0  0  0  0  0  0  0  0  0 10  0  0
  -11.5020    6.1940  -13.6460 C   0  0  0  0  0  0  0  0  0  9  0  0
  5  3  1  0
  5  1  2  0
  9  3  2  0
 12  9  1  0
 15  1  1  0
 15 12  2  0
 15  7  1  0
 17  8  2  0
 17  7  1  0
 19 17  1  0
 19 11  1  0
 20 11  1  0
 20  4  2  0
 21 20  1  0
 22 21  2  0
 23 22  1  0
 24 23  2  0
 24 14  1  0
 25 14  1  0
 26 25  1  0
 26 16  1  0
 27 16  1  0
 28 27  2  0
 29 28  1  0
 30 29  2  0
 31  6  1  6
 31 30  1  0
 31 10  1  0
 31  2  1  0
 32 30  1  0
 33 32  2  0
 33 27  1  0
 34 16  1  0
 35 34  1  0
 35 14  1  0
 36 24  1  0
 37 36  2  0
 37 21  1  0
 37 13  1  0
 19 38  1  1
 39 38  1  0
 40 39  2  0
 40 18  1  0
 41 18  1  0
 42 41  2  0
 42 39  1  0
 43 42  1  0
 44 43  2  0
 45 44  1  0
 46 45  2  0
 46 41  1  0
M  END
$$$$
