
     RDKit          3D

 27 29  0  0  0  0  0  0  0  0999 V2000
   33.2720   22.6750  236.6370 C   0  0  0  0  0  0  0  0  0  0  0  0
   33.5250   21.7590  238.9540 C   0  0  0  0  0  0  0  0  0  2  0  0
   29.6820   26.8660  240.9240 O   0  0  0  0  0  0  0  0  0  9  0  0
   32.4120   33.4530  244.6910 Cl  0  0  0  0  0  0  0  0  0 22  0  0
   25.1290   28.0790  240.4330 C   0  0  0  0  0  0  0  0  0 15  0  0
   30.1990   31.9510  244.2610 C   0  0  0  0  0  0  0  0  0 23  0  0
   32.0000   31.6730  242.6970 C   0  0  0  0  0  0  0  0  0 20  0  0
   31.1840   25.2250  239.4700 C   0  0  0  0  0  0  0  0  0  5  0  0
   33.1160   26.4790  238.7700 C   0  0  0  0  0  0  0  0  0 25  0  0
   29.4580   31.0060  243.5620 C   0  0  0  0  0  0  0  0  0 24  0  0
   31.2550   30.7290  241.9970 C   0  0  0  0  0  0  0  0  0 19  0  0
   31.8070   24.0490  239.0570 C   0  0  0  0  0  0  0  0  0  4  0  0
   33.7370   25.3100  238.3600 C   0  0  0  0  0  0  0  0  0 26  0  0
   25.8030   28.8210  241.3070 C   0  0  0  0  0  0  0  0  0 14  0  0
   26.9160   28.7950  239.4680 C   0  0  0  0  0  0  0  0  0 17  0  0
   27.8700   30.1390  241.4230 C   0  0  0  0  0  0  0  0  0 12  0  0
   25.8170   28.0630  239.2950 N   0  0  0  0  0  0  0  0  0 16  0  0
   31.3630   27.6390  239.6470 N   0  0  0  0  0  0  0  0  0  7  0  0
   29.8210   29.0920  240.5150 O   0  0  0  0  0  0  0  0  0 10  0  0
   30.2700   27.8110  240.4000 C   0  0  0  0  0  0  0  0  0  8  0  0
   31.4770   32.2860  243.8290 C   0  0  0  0  0  0  0  0  0 21  0  0
   31.8560   26.4390  239.3500 C   0  0  0  0  0  0  0  0  0  6  0  0
   33.0910   24.0930  238.5200 C   0  0  0  0  0  0  0  0  0  3  0  0
   29.9800   30.3830  242.4340 C   0  0  0  0  0  0  0  0  0 18  0  0
   33.7640   22.9710  238.0550 C   0  0  2  0  0  0  0  0  0  1  0  0
   29.1970   29.4560  241.7470 C   0  0  1  0  0  0  0  0  0 11  0  0
   26.9190   29.2440  240.7200 N   0  0  0  0  0  0  0  0  0 13  0  0
 10  6  2  0
 11  7  1  0
 12  8  2  0
 13  9  1  0
 14  5  2  0
 17 15  2  0
 17  5  1  0
 20  3  2  0
 20 18  1  0
 20 19  1  0
 21  7  2  0
 21  6  1  0
 21  4  1  0
 22  8  1  0
 22 18  1  0
 22  9  2  0
 23 12  1  0
 23 13  2  0
 24 11  2  0
 24 10  1  0
 25  2  1  1
 25 23  1  0
 25  1  1  0
 26 24  1  0
 26 19  1  0
 26 16  1  6
 27 15  1  0
 27 14  1  0
 27 16  1  0
M  END
$$$$
