
     RDKit          3D

 27 29  0  0  0  0  0  0  0  0999 V2000
   -3.8980   30.9950  457.5740 C   0  0  0  0  0  0  0  0  0  0  0  0
   -1.6420   31.6210  456.8610 C   0  0  0  0  0  0  0  0  0  2  0  0
    1.1160   26.8480  460.9040 O   0  0  0  0  0  0  0  0  0  9  0  0
   -0.8940   20.8920  464.0720 F   0  0  0  0  0  0  0  0  0 22  0  0
    5.8650   25.4410  460.1690 C   0  0  0  0  0  0  0  0  0 15  0  0
   -0.3940   21.5610  462.1890 C   0  0  0  0  0  0  0  0  0 20  0  0
    0.4850   22.4890  464.1810 C   0  0  0  0  0  0  0  0  0 23  0  0
   -1.9680   27.3450  458.4470 C   0  0  0  0  0  0  0  0  0 25  0  0
   -0.0110   28.5100  459.1020 C   0  0  0  0  0  0  0  0  0  5  0  0
    0.3640   22.4680  461.5020 C   0  0  0  0  0  0  0  0  0 19  0  0
    1.2420   23.4030  463.4780 C   0  0  0  0  0  0  0  0  0 24  0  0
   -2.5660   28.5410  458.1160 C   0  0  0  0  0  0  0  0  0 26  0  0
   -0.6170   29.7020  458.7750 C   0  0  0  0  0  0  0  0  0  4  0  0
    5.0090   24.8130  460.9180 C   0  0  0  0  0  0  0  0  0 14  0  0
    4.4030   24.6230  458.9120 C   0  0  0  0  0  0  0  0  0 17  0  0
    3.0440   23.5440  460.7650 C   0  0  0  0  0  0  0  0  0 12  0  0
    5.5190   25.2890  458.9210 N   0  0  0  0  0  0  0  0  0 16  0  0
   -0.1880   26.1490  459.2330 N   0  0  0  0  0  0  0  0  0  7  0  0
    1.1610   24.7400  460.3030 O   0  0  0  0  0  0  0  0  0 10  0  0
    0.7000   25.9650  460.1890 C   0  0  0  0  0  0  0  0  0  8  0  0
   -0.3240   21.5790  463.5390 C   0  0  0  0  0  0  0  0  0 21  0  0
   -0.6980   27.3260  458.9560 C   0  0  0  0  0  0  0  0  0  6  0  0
   -1.9000   29.7430  458.2730 C   0  0  0  0  0  0  0  0  0  3  0  0
    1.1780   23.4040  462.1110 C   0  0  0  0  0  0  0  0  0 18  0  0
   -2.4320   30.9950  457.9780 C   0  0  2  0  0  0  0  0  0  1  0  0
    1.9220   24.3120  461.3860 C   0  0  1  0  0  0  0  0  0 11  0  0
    4.0960   24.3190  460.1540 N   0  0  0  0  0  0  0  0  0 13  0  0
 10  6  2  0
 11  7  1  0
 12  8  2  0
 13  9  1  0
 14  5  2  0
 17 15  2  0
 17  5  1  0
 20 19  1  0
 20 18  1  0
 20  3  2  0
 21  6  1  0
 21  4  1  0
 21  7  2  0
 22 18  1  0
 22  9  2  0
 22  8  1  0
 23 13  2  0
 23 12  1  0
 24 10  1  0
 24 11  2  0
 25  2  1  6
 25  1  1  0
 25 23  1  0
 26 24  1  0
 26 19  1  0
 26 16  1  6
 27 16  1  0
 27 15  1  0
 27 14  1  0
M  END
$$$$
