
     RDKit          3D

 14 13  0  0  0  0  0  0  0  0999 V2000
  -13.3810   -1.2030   17.8030 O   0  0  0  0  0  0  0  0  0 13  0  0
  -13.1320   -0.4140   19.8710 O   0  0  0  0  0  0  0  0  0 12  0  0
  -12.7600   -0.5220   18.6780 C   0  0  0  0  0  0  0  0  0 11  0  0
  -11.4960    0.2120   18.2770 C   0  0  0  0  0  0  0  0  0 10  0  0
  -11.3150    1.5800   18.9510 C   0  0  0  0  0  0  0  0  0  9  0  0
   -9.9490    2.2000   18.5900 C   0  0  0  0  0  0  0  0  0  8  0  0
   -9.9880    3.6250   18.0110 C   0  0  0  0  0  0  0  0  0  7  0  0
   -9.3760    3.7160   16.6060 C   0  0  0  0  0  0  0  0  0  6  0  0
   -9.6400    5.0580   15.9010 C   0  0  0  0  0  0  0  0  0  5  0  0
   -9.5930    4.9560   14.3680 C   0  0  0  0  0  0  0  0  0  4  0  0
  -10.9810    4.9170   13.7230 C   0  0  0  0  0  0  0  0  0  3  0  0
  -11.0260    4.2540   12.3400 C   0  0  0  0  0  0  0  0  0  2  0  0
  -12.4920    4.0880   11.9020 C   0  0  0  0  0  0  0  0  0  1  0  0
  -12.7050    4.1320   10.4020 C   0  0  0  0  0  0  0  0  0  0  0  0
  3  2  2  0
  3  1  1  0
  4  3  1  0
  5  4  1  0
  6  5  1  0
  7  6  1  0
  8  7  1  0
  9  8  1  0
 10  9  1  0
 11 10  1  0
 12 11  1  0
 13 12  1  0
 14 13  1  0
M  END
$$$$
