
     RDKit          3D

 13 13  0  0  0  0  0  0  0  0999 V2000
  -21.9710   -1.9240  -15.6940 O   0  0  0  0  0  0  0  0  0  8  0  0
  -23.0680   -2.1120  -16.8040 P   0  0  0  0  0  0  0  0  0  7  0  0
  -24.5240   -2.0250  -16.2070 O   0  0  0  0  0  0  0  0  0  9  0  0
  -22.8950   -1.0550  -17.9680 O   0  0  0  0  0  0  0  0  0 10  0  0
  -22.8200   -3.5710  -17.3810 O   0  0  0  0  0  0  0  0  0  6  0  0
  -23.6820   -4.2380  -18.2640 C   0  0  0  0  0  0  0  0  0  5  0  0
  -23.9410   -3.7400  -19.5320 C   0  0  0  0  0  0  0  0  0  4  0  0
  -24.7810   -4.4290  -20.3860 C   0  0  0  0  0  0  0  0  0  3  0  0
  -25.3530   -5.6300  -19.9860 C   0  0  0  0  0  0  0  0  0  2  0  0
  -26.2570   -6.3840  -20.9330 C   0  0  0  0  0  0  0  0  0  1  0  0
  -25.4530   -7.2410  -21.8900 C   0  0  0  0  0  0  0  0  0  0  0  0
  -25.0800   -6.1380  -18.7260 C   0  0  0  0  0  0  0  0  0 12  0  0
  -24.2450   -5.4450  -17.8730 C   0  0  0  0  0  0  0  0  0 11  0  0
  2  1  2  0
  3  2  1  0
  4  2  1  0
  5  2  1  0
  6  5  1  0
  7  6  2  0
  8  7  1  0
  9  8  2  0
 10  9  1  6
 11 10  1  1
 12  9  1  0
 13 12  2  0
 13  6  1  0
M  END
$$$$
