
     RDKit          3D

 31 34  0  0  0  0  0  0  0  0999 V2000
    9.8100   39.9940   36.9300 C   0  0  0  0  0  0  0  0  0  2  0  0
    8.9980   41.2600   37.2430 C   0  0  1  0  0  0  0  0  0  4  0  0
    8.5480   41.9420   35.9200 C   0  0  0  0  0  0  0  0  0  6  0  0
    9.7340   42.4830   35.1610 C   0  0  0  0  0  0  0  0  0  7  0  0
   10.1940   43.7800   35.4080 C   0  0  0  0  0  0  0  0  0  8  0  0
   11.3040   44.2330   34.7030 C   0  0  0  0  0  0  0  0  0  9  0  0
   12.8510   41.6890   36.9470 C   0  0  0  0  0  0  0  0  0 18  0  0
   14.2540   41.6690   37.5380 C   0  0  0  0  0  0  0  0  0 19  0  0
   15.4890   41.2890   36.9830 C   0  0  0  0  0  0  0  0  0 30  0  0
   11.8010   41.0380   37.9050 C   0  0  1  0  0  0  0  0  0 17  0  0
    7.7950   40.8010   37.8760 O   0  0  0  0  0  0  0  0  0  5  0  0
   14.2890   41.2760   34.3640 O   0  0  0  0  0  0  0  0  0 28  0  0
   11.9010   38.7390   36.9730 C   0  0  0  0  0  0  0  0  0  0  0  0
   11.5210   43.1270   39.0990 O   0  0  0  0  0  0  0  0  0 16  0  0
   11.4460   42.1470   33.4890 C   0  0  0  0  0  0  0  0  0 11  0  0
   10.3490   41.6730   34.2070 C   0  0  0  0  0  0  0  0  0 12  0  0
   10.9250   42.1600   38.3890 C   0  0  0  0  0  0  0  0  0 15  0  0
   15.9950   40.7660   35.7630 C   0  0  0  0  0  0  0  0  0 26  0  0
   17.3600   40.5120   35.6180 C   0  0  0  0  0  0  0  0  0 25  0  0
   18.2520   40.7140   36.6660 C   0  0  0  0  0  0  0  0  0 24  0  0
    8.8900   43.2520   38.7820 C   0  0  0  0  0  0  0  0  0 14  0  0
   15.2470   40.5730   34.5850 N   0  0  0  0  0  0  0  0  0 27  0  0
   15.6260   39.8450   33.6880 O   0  0  0  0  0  0  0  0  0 29  0  0
   17.7790   41.2280   37.8610 C   0  0  0  0  0  0  0  0  0 23  0  0
   16.4330   41.5140   38.0190 C   0  0  0  0  0  0  0  0  0 22  0  0
   15.8060   42.0150   39.1170 N   0  0  0  0  0  0  0  0  0 21  0  0
   14.4980   42.1190   38.8450 C   0  0  0  0  0  0  0  0  0 20  0  0
   11.0970   39.9320   37.2560 N   0  0  0  0  0  0  0  0  0  1  0  0
    9.2740   39.0140   36.4270 O   0  0  0  0  0  0  0  0  0  3  0  0
    9.6860   42.2080   38.1430 N   0  0  0  0  0  0  0  0  0 13  0  0
   11.9280   43.4310   33.7410 C   0  0  0  0  0  0  0  0  0 10  0  0
  2  1  1  0
  3  2  1  0
  4  3  1  0
  5  4  2  0
  6  5  1  0
  8  7  1  0
  9  8  1  0
 10  7  1  6
  2 11  1  1
 16  4  1  0
 16 15  2  0
 17 10  1  0
 17 14  2  0
 18  9  2  0
 19 18  1  0
 20 19  2  0
 18 22  1  0
 22 12  2  0
 23 22  1  0
 24 20  1  0
 25  9  1  0
 25 24  2  0
 26 25  1  0
 27  8  2  0
 27 26  1  0
 28  1  1  0
 28 13  1  0
 28 10  1  0
 29  1  2  0
 30  2  1  0
 30 21  1  0
 30 17  1  0
 31 15  1  0
 31  6  2  0
M  CHG  2  22   1  23  -1
M  END
$$$$
