
     RDKit          3D

 65 67  0  0  0  0  0  0  0  0999 V2000
   76.0580   25.7680   21.7710 C   0  0  1  0  0  0  0  0  0 35  0  0
   77.6000   23.8080   21.8530 C   0  0  2  0  0  0  0  0  0 33  0  0
   78.5960   24.7850   22.4810 C   0  0  1  0  0  0  0  0  0 61  0  0
   77.8830   25.6020   23.5270 C   0  0  2  0  0  0  0  0  0 59  0  0
   76.6990   26.3800   22.9820 C   0  0  0  0  0  0  0  0  0 58  0  0
   74.7340   26.3580   21.3010 C   0  0  0  0  0  0  0  0  0 37  0  0
   78.2680   22.8850   20.8580 C   0  0  0  0  0  0  0  0  0 32  0  0
   73.8660   25.3470   20.5070 C   0  0  2  0  0  0  0  0  0 38  0  0
   77.4370   21.6200   20.4980 C   0  0  2  0  0  0  0  0  0 20  0  0
   79.8070   24.0890   23.1770 C   0  0  0  0  0  0  0  0  0 62  0  0
   73.0050   26.1390   19.5150 C   0  0  0  0  0  0  0  0  0 40  0  0
   78.3710   19.6720   21.4150 C   0  0  2  0  0  0  0  0  0 22  0  0
   71.9460   25.2240   18.8810 C   0  0  2  0  0  0  0  0  0 41  0  0
   78.8030   19.0640   22.7590 C   0  0  2  0  0  0  0  0  0 30  0  0
   79.9180   18.0460   22.5060 C   0  0  2  0  0  0  0  0  0 28  0  0
   79.4660   17.0680   21.4390 C   0  0  1  0  0  0  0  0  0 26  0  0
   78.9180   17.8040   20.2220 C   0  0  1  0  0  0  0  0  0 24  0  0
   71.2020   25.9870   17.7850 C   0  0  1  0  0  0  0  0  0 43  0  0
   76.0330   21.9620   20.0190 C   0  0  0  0  0  0  0  0  0 19  0  0
   70.2710   25.0230   17.0140 C   0  0  0  0  0  0  0  0  0 45  0  0
   78.3800   16.7660   19.2520 C   0  0  0  0  0  0  0  0  0 25  0  0
   69.7290   25.7110   15.7430 C   0  0  0  0  0  0  0  0  0 46  0  0
   75.1910   21.0490   19.5750 C   0  0  0  0  0  0  0  0  0 18  0  0
   68.6280   24.8680   15.0620 C   0  0  2  0  0  0  0  0  0 47  0  0
   68.3860   25.4350   13.6500 C   0  0  0  0  0  0  0  0  0 49  0  0
   66.9930   25.0460   13.1130 C   0  0  2  0  0  0  0  0  0 50  0  0
   73.8230   21.5420   19.1040 C   0  0  0  0  0  0  0  0  0 17  0  0
   66.8770   25.4800   11.6480 C   0  0  0  0  0  0  0  0  0 52  0  0
   64.3740   23.0290    8.5510 C   0  0  2  0  0  0  0  0  0  1  0  0
   63.0330   22.2760    8.3850 C   0  0  1  0  0  0  0  0  0  2  0  0
   64.2230   24.4340    9.1460 C   0  0  2  0  0  0  0  0  0 56  0  0
   62.5540   21.6910    9.7310 C   0  0  1  0  0  0  0  0  0  4  0  0
   73.0890   20.8180   18.2870 C   0  0  0  0  0  0  0  0  0 16  0  0
   65.5960   24.8890   11.0350 C   0  0  0  0  0  0  0  0  0 53  0  0
   65.0920   23.1570    7.2100 C   0  0  0  0  0  0  0  0  0  0  0  0
   63.8240   25.4560    8.0880 C   0  0  0  0  0  0  0  0  0 57  0  0
   61.5020   20.6060    9.4800 C   0  0  0  0  0  0  0  0  0  5  0  0
   63.7670   21.1250   10.4680 C   0  0  0  0  0  0  0  0  0  6  0  0
   71.7350   21.3450   17.8230 C   0  0  0  0  0  0  0  0  0 15  0  0
   63.9030   21.1740   11.7810 C   0  0  0  0  0  0  0  0  0  7  0  0
   70.9990   20.6450   16.9850 C   0  0  0  0  0  0  0  0  0 14  0  0
   65.2020   20.6000   12.3490 C   0  0  0  0  0  0  0  0  0  8  0  0
   69.6450   21.1820   16.4920 C   0  0  0  0  0  0  0  0  0 13  0  0
   65.6950   21.0430   13.4940 C   0  0  0  0  0  0  0  0  0  9  0  0
   68.9710   20.5280   15.5590 C   0  0  0  0  0  0  0  0  0 12  0  0
   67.0230   20.4790   14.0080 C   0  0  0  0  0  0  0  0  0 10  0  0
   67.6210   21.0620   15.0390 C   0  0  0  0  0  0  0  0  0 11  0  0
   80.1820   17.2760   23.7100 N   0  0  0  0  0  0  0  0  0 29  0  0
   76.5430   24.5320   21.1450 O   0  0  0  0  0  0  0  0  0 34  0  0
   75.3390   24.9570   22.6750 O   0  0  0  0  0  0  0  0  0 36  0  0
   78.8070   26.5150   24.0910 O   0  0  0  0  0  0  0  0  0 60  0  0
   77.4000   20.6910   21.5530 O   0  0  0  0  0  0  0  0  0 21  0  0
   77.8780   18.6560   20.6010 O   0  0  0  0  0  0  0  0  0 23  0  0
   73.0660   24.6730   21.4180 O   0  0  0  0  0  0  0  0  0 39  0  0
   79.6420   23.0750   23.9190 O   0  0  0  0  0  0  0  0  0 63  0  0
   80.9860   24.5390   23.0280 O   0  0  0  0  0  0  0  0  0 64  0  0
   71.0290   24.8830   19.8790 O   0  0  0  0  0  0  0  0  0 42  0  0
   77.7300   18.3660   23.2830 O   0  0  0  0  0  0  0  0  0 31  0  0
   80.5800   16.3250   21.0520 O   0  0  0  0  0  0  0  0  0 27  0  0
   70.4750   27.0300   18.3820 O   0  0  0  0  0  0  0  0  0 44  0  0
   67.4440   24.8590   15.8230 O   0  0  0  0  0  0  0  0  0 48  0  0
   66.0000   25.6780   13.8480 O   0  0  0  0  0  0  0  0  0 51  0  0
   65.4790   24.8210    9.6290 O   0  0  0  0  0  0  0  0  0 55  0  0
   62.0440   23.1060    7.8350 O   0  0  0  0  0  0  0  0  0  3  0  0
   64.7160   24.5040   11.7300 O   0  0  0  0  0  0  0  0  0 54  0  0
  3  2  1  0
  4  3  1  0
  5  1  1  0
  5  4  1  0
  6  1  1  0
  2  7  1  6
  8  6  1  0
  9  7  1  0
  3 10  1  1
 11  8  1  0
 13 11  1  0
 14 12  1  0
 15 14  1  0
 16 15  1  0
 17 16  1  0
 18 13  1  0
 19  9  1  0
 20 18  1  0
 17 21  1  6
 22 20  1  0
 23 19  2  3
 24 22  1  0
 25 24  1  0
 26 25  1  0
 27 23  1  0
 28 26  1  0
 30 29  1  0
 31 29  1  0
 32 30  1  0
 33 27  2  3
 34 28  1  0
 29 35  1  6
 31 36  1  6
 32 37  1  6
 38 32  1  0
 39 33  1  0
 40 38  2  3
 41 39  2  3
 42 40  1  0
 43 41  1  0
 44 42  2  3
 45 43  2  3
 46 44  1  0
 47 46  2  3
 47 45  1  0
 15 48  1  1
 49  1  1  0
 49  2  1  0
  1 50  1  6
  4 51  1  6
 12 52  1  1
  9 52  1  1
 53 17  1  0
 53 12  1  0
  8 54  1  1
 55 10  2  0
 56 10  1  0
 13 57  1  1
 14 58  1  6
 16 59  1  6
 18 60  1  1
 24 61  1  1
 26 62  1  1
 63 31  1  0
 63 34  1  0
 30 64  1  1
 65 34  2  0
M  END
$$$$
