
     RDKit          3D

 11 12  0  0  0  0  0  0  0  0999 V2000
   28.6070   33.8030   59.0330 N   0  0  0  0  0  0  0  0  0  8  0  0
   28.9060   32.4930   58.7290 C   0  0  0  0  0  0  0  0  0  7  0  0
   28.3810   31.7520   59.5790 N   0  0  0  0  0  0  0  0  0  6  0  0
   27.7200   32.4790   60.4760 C   0  0  0  0  0  0  0  0  0  5  0  0
   27.8530   33.7820   60.1460 C   0  0  0  0  0  0  0  0  0  4  0  0
   27.3280   35.0430   60.8040 C   0  0  0  0  0  0  0  0  0  3  0  0
   26.8970   34.9910   62.1750 C   0  0  0  0  0  0  0  0  0  2  0  0
   26.4060   36.2010   62.7950 C   0  0  0  0  0  0  0  0  0  1  0  0
   26.3700   37.3940   62.0270 C   0  0  0  0  0  0  0  0  0  0  0  0
   26.7980   37.4360   60.6740 C   0  0  0  0  0  0  0  0  0 10  0  0
   27.2770   36.2220   60.0940 C   0  0  0  0  0  0  0  0  0  9  0  0
  2  1  1  0
  3  2  2  0
  4  3  1  0
  5  4  2  0
  5  1  1  0
  6  5  1  0
  7  6  2  0
  8  7  1  0
  9  8  2  0
 10  9  1  0
 11 10  2  0
 11  6  1  0
M  END
$$$$
