
     RDKit          3D

 13 14  0  0  0  0  0  0  0  0999 V2000
  -24.3900  -34.0450  116.5160 O   0  0  0  0  0  0  0  0  0  6  0  0
  -25.2310  -34.2130  115.6330 C   0  0  0  0  0  0  0  0  0  5  0  0
  -24.8740  -34.1040  114.2900 C   0  0  0  0  0  0  0  0  0  7  0  0
  -23.5680  -33.7770  113.9360 C   0  0  0  0  0  0  0  0  0  8  0  0
  -23.2140  -33.6540  112.5950 C   0  0  0  0  0  0  0  0  0  9  0  0
  -24.1710  -33.8560  111.6040 C   0  0  0  0  0  0  0  0  0 10  0  0
  -25.4770  -34.1830  111.9560 C   0  0  0  0  0  0  0  0  0 11  0  0
  -25.8310  -34.3090  113.2960 C   0  0  0  0  0  0  0  0  0 12  0  0
  -27.1410  -34.6280  113.6470 C   0  0  0  0  0  0  0  0  0  1  0  0
  -27.9850  -34.8340  112.7750 O   0  0  0  0  0  0  0  0  0  0  0  0
  -27.4950  -34.7330  114.9890 C   0  0  0  0  0  0  0  0  0  2  0  0
  -26.5420  -34.5230  115.9800 C   0  0  0  0  0  0  0  0  0  3  0  0
  -26.9000  -34.5980  117.2910 O   0  0  0  0  0  0  0  0  0  4  0  0
  2  1  2  0
  3  2  1  0
  4  3  2  0
  5  4  1  0
  6  5  2  0
  7  6  1  0
  8  7  2  0
  8  3  1  0
  9  8  1  0
 10  9  2  0
 11  9  1  0
 12 11  2  0
 12  2  1  0
 13 12  1  0
M  END
$$$$
