
     RDKit          3D

 15 16  0  0  0  0  0  0  0  0999 V2000
  -24.9350  -15.2860   21.3810 O   0  0  0  0  0  0  0  0  0 12  0  0
  -25.8830  -15.6490   20.6740 C   0  0  0  0  0  0  0  0  0 11  0  0
  -26.7550  -16.6320   21.1300 C   0  0  0  0  0  0  0  0  0 13  0  0
  -26.5620  -17.2080   22.3810 C   0  0  0  0  0  0  0  0  0 14  0  0
  -27.4390  -18.1880   22.8480 C   0  0  0  0  0  0  0  0  0  1  0  0
  -27.2460  -18.7520   24.0680 O   0  0  0  0  0  0  0  0  0  0  0  0
  -28.5040  -18.5890   22.0490 C   0  0  0  0  0  0  0  0  0  2  0  0
  -28.6990  -18.0130   20.7960 C   0  0  0  0  0  0  0  0  0  3  0  0
  -29.7270  -18.4450   20.0160 O   0  0  0  0  0  0  0  0  0  4  0  0
  -27.8270  -17.0300   20.3360 C   0  0  0  0  0  0  0  0  0  5  0  0
  -28.0270  -16.4370   19.0820 C   0  0  0  0  0  0  0  0  0  6  0  0
  -28.9790  -16.7450   18.3890 O   0  0  0  0  0  0  0  0  0  7  0  0
  -27.1380  -15.4590   18.6290 C   0  0  0  0  0  0  0  0  0  8  0  0
  -26.0690  -15.0670   19.4270 C   0  0  0  0  0  0  0  0  0  9  0  0
  -25.2010  -14.1250   18.9710 O   0  0  0  0  0  0  0  0  0 10  0  0
  2  1  1  0
  3  2  2  0
  4  3  1  0
  5  4  2  0
  6  5  1  0
  7  5  1  0
  8  7  2  0
  9  8  1  0
 10  8  1  0
 10  3  1  0
 11 10  2  0
 12 11  1  0
 13 11  1  0
 14 13  2  0
 14  2  1  0
 15 14  1  0
M  END
$$$$
