
     RDKit          3D

 41 42  0  0  0  0  0  0  0  0999 V2000
  -18.3060    9.0700  -25.3320 C   0  0  0  0  0  0  0  0  0  6  0  0
  -18.1830    8.6380  -23.8650 C   0  0  0  0  0  0  0  0  0  4  0  0
  -19.0860    8.6450  -27.6530 C   0  0  1  0  0  0  0  0  0  9  0  0
  -16.9480   11.0880  -21.0180 C   0  0  0  0  0  0  0  0  0  0  0  0
  -16.7200    8.8140  -21.9300 C   0  0  2  0  0  0  0  0  0  2  0  0
  -18.0600    3.7870  -26.6680 O   0  0  0  0  0  0  0  0  0 33  0  0
  -17.4050    4.5880  -27.3140 C   0  0  0  0  0  0  0  0  0 32  0  0
  -16.5280    5.5470  -26.6030 C   0  0  0  0  0  0  0  0  0 34  0  0
  -16.6320    5.5840  -25.2670 C   0  0  0  0  0  0  0  0  0 35  0  0
  -15.9170    6.5670  -24.4110 C   0  0  0  0  0  0  0  0  0 36  0  0
  -14.8440    7.4730  -24.9450 C   0  0  0  0  0  0  0  0  0 37  0  0
  -16.3570    6.6750  -23.1340 C   0  0  0  0  0  0  0  0  0 38  0  0
  -15.7720    7.6580  -22.1520 C   0  0  2  0  0  0  0  0  0 39  0  0
  -15.5270    6.9630  -20.8220 C   0  0  0  0  0  0  0  0  0 40  0  0
  -17.5740    4.7190  -28.8010 C   0  0  2  0  0  0  0  0  0 30  0  0
  -16.2180    4.7070  -29.5160 C   0  0  0  0  0  0  0  0  0 31  0  0
  -18.2670    6.0540  -29.1080 C   0  0  0  0  0  0  0  0  0 29  0  0
  -19.5890    6.2940  -28.3900 C   0  0  2  0  0  0  0  0  0 25  0  0
  -20.7870    5.4370  -28.8540 C   0  0  0  0  0  0  0  0  0 26  0  0
  -21.7590    5.3500  -27.6860 C   0  0  0  0  0  0  0  0  0 27  0  0
  -21.3800    4.7820  -26.6760 O   0  0  0  0  0  0  0  0  0 28  0  0
  -19.9420    7.7700  -28.5460 C   0  0  2  0  0  0  0  0  0 11  0  0
  -19.7870    8.2920  -29.8850 O   0  0  0  0  0  0  0  0  0 12  0  0
  -21.0350    8.5980  -30.4800 C   0  0  2  0  0  0  0  0  0 13  0  0
  -21.8470    7.4130  -30.6280 O   0  0  0  0  0  0  0  0  0 14  0  0
  -23.0520    7.7420  -31.2970 C   0  0  2  0  0  0  0  0  0 15  0  0
  -23.9790    6.5440  -31.3110 C   0  0  0  0  0  0  0  0  0 16  0  0
  -22.7800    8.2290  -32.7210 C   0  0  1  0  0  0  0  0  0 17  0  0
  -24.0670    8.4860  -33.3050 O   0  0  0  0  0  0  0  0  0 18  0  0
  -21.9830    9.5060  -32.6330 C   0  0  2  0  0  0  0  0  0 19  0  0
  -21.6120    9.9720  -33.9740 N   0  0  0  0  0  0  0  0  0 20  0  0
  -20.4490    9.2810  -34.5170 C   0  0  0  0  0  0  0  0  0 21  0  0
  -21.2490   11.3750  -34.0090 C   0  0  0  0  0  0  0  0  0 22  0  0
  -20.7150    9.1940  -31.8360 C   0  0  1  0  0  0  0  0  0 23  0  0
  -19.9230   10.3510  -31.6570 O   0  0  0  0  0  0  0  0  0 24  0  0
  -19.3060   10.0960  -28.0660 C   0  0  0  0  0  0  0  0  0 10  0  0
  -19.4020    8.4380  -26.1770 C   0  0  2  0  0  0  0  0  0  7  0  0
  -20.6080    9.1410  -25.9310 O   0  0  0  0  0  0  0  0  0  8  0  0
  -18.8890    7.8070  -23.2890 O   0  0  0  0  0  0  0  0  0  5  0  0
  -17.0920    9.3110  -23.1850 O   0  0  0  0  0  0  0  0  0  3  0  0
  -15.9990    9.9450  -21.1980 C   0  0  0  0  0  0  0  0  0  1  0  0
  2  1  1  0
  7  6  2  0
  8  7  1  0
  9  8  2  3
 10  9  1  0
 10 11  1  0
 12 10  2  3
 13 12  1  0
 13  5  1  0
 13 14  1  1
 15  7  1  0
 15 16  1  6
 17 15  1  0
 18 17  1  0
 18 19  1  6
 20 19  1  0
 21 20  2  0
 22 18  1  0
 22  3  1  0
 22 23  1  6
 24 23  1  6
 25 24  1  0
 26 25  1  0
 26 27  1  6
 28 26  1  0
 28 29  1  1
 30 28  1  0
 30 31  1  6
 32 31  1  0
 33 31  1  0
 34 30  1  0
 34 24  1  0
 34 35  1  1
  3 36  1  6
 37  3  1  0
 37  1  1  0
 37 38  1  1
 39  2  2  0
 40  5  1  0
 40  2  1  0
  5 41  1  1
 41  4  1  0
M  END
$$$$
