
     RDKit          3D

 20 22  0  0  0  0  0  0  0  0999 V2000
   13.8890  -12.3120    7.5940 N   0  0  0  0  0  0  0  0  0 10  0  0
   18.1630  -16.3240    7.0700 C   0  0  0  0  0  0  0  0  0  4  0  0
   18.1010  -16.9860    6.0410 O   0  0  0  0  0  0  0  0  0  5  0  0
   16.9370  -15.5920    7.5620 C   0  0  2  0  0  0  0  0  0  6  0  0
   12.3280  -13.3120    9.3860 C   0  0  0  0  0  0  0  0  0 12  0  0
   19.5420  -15.5370    9.0530 C   0  0  1  0  0  0  0  0  0  2  0  0
   20.9930  -15.0180    9.2090 C   0  0  0  0  0  0  0  0  0  1  0  0
   21.3250  -13.8840    8.2460 C   0  0  0  0  0  0  0  0  0  0  0  0
   18.5290  -14.3800    9.1040 C   0  0  0  0  0  0  0  0  0 18  0  0
   15.9590  -15.1470    6.4350 C   0  0  0  0  0  0  0  0  0  7  0  0
   14.9620  -14.1900    7.0550 C   0  0  0  0  0  0  0  0  0  8  0  0
   14.8860  -12.8410    6.7760 C   0  0  0  0  0  0  0  0  0  9  0  0
   13.3330  -13.3160    8.4110 C   0  0  0  0  0  0  0  0  0 11  0  0
   14.0250  -14.5430    8.0800 C   0  0  0  0  0  0  0  0  0 16  0  0
   13.6840  -15.7270    8.7470 C   0  0  0  0  0  0  0  0  0 15  0  0
   12.6830  -15.7190    9.7070 C   0  0  0  0  0  0  0  0  0 14  0  0
   12.0160  -14.4970   10.0380 C   0  0  0  0  0  0  0  0  0 13  0  0
   17.3380  -14.4310    8.3940 N   0  0  0  0  0  0  0  0  0 17  0  0
   19.3680  -16.2970    7.7750 N   0  0  0  0  0  0  0  0  0  3  0  0
   18.7380  -13.3700    9.7880 O   0  0  0  0  0  0  0  0  0 19  0  0
  3  2  2  0
  4  2  1  0
  6  7  1  6
  8  7  1  0
  9  6  1  0
  4 10  1  6
 11 10  1  0
 12 11  2  0
 12  1  1  0
 13  5  2  0
 13  1  1  0
 14 13  1  0
 14 11  1  0
 15 14  2  0
 16 15  1  0
 17 16  2  0
 17  5  1  0
 18  9  1  0
 18  4  1  0
 19  6  1  0
 19  2  1  0
 20  9  2  0
M  END
$$$$
