
     RDKit          3D

 28 33  0  0  0  0  0  0  0  0999 V2000
   18.1530   20.0600   17.3520 C   0  0  2  0  0  0  0  0  0 20  0  0
   19.4850   21.0650   17.1500 C   0  0  0  0  0  0  0  0  0 19  0  0
   20.8070   20.3510   17.0750 C   0  0  0  0  0  0  0  0  0 17  0  0
   21.0110   19.0310   18.0190 C   0  0  0  0  0  0  0  0  0 16  0  0
   19.8790   18.1600   17.9720 C   0  0  0  0  0  0  0  0  0 15  0  0
   19.9740   16.7510   18.7910 C   0  0  0  0  0  0  0  0  0 14  0  0
   18.8320   16.4990   19.8280 C   0  0  0  0  0  0  0  0  0 13  0  0
   17.4200   16.8020   19.2040 C   0  0  2  0  0  0  0  0  0 12  0  0
   17.2230   18.2270   19.0260 C   0  0  1  0  0  0  0  0  0 23  0  0
   18.4320   18.9560   18.1680 C   0  0  1  0  0  0  0  0  0 21  0  0
   15.8760   18.6030   18.4800 C   0  0  0  0  0  0  0  0  0 24  0  0
   14.7110   17.8200   19.0740 C   0  0  2  0  0  0  0  0  0 25  0  0
   15.1450   16.8600   20.2130 C   0  0  1  0  0  0  0  0  0 26  0  0
   16.4270   16.2730   20.3340 C   0  0  1  0  0  0  0  0  0 11  0  0
   16.1790   14.7110   20.8170 C   0  0  0  0  0  0  0  0  0 10  0  0
   15.0120   14.7450   21.6170 C   0  0  0  0  0  0  0  0  0  9  0  0
   14.1990   16.1170   21.2920 C   0  0  2  0  0  0  0  0  0  8  0  0
   14.7070   15.8600   19.1120 C   0  0  0  0  0  0  0  0  0 27  0  0
   18.0070   18.1760   16.9020 C   0  0  0  0  0  0  0  0  0 22  0  0
   12.6930   15.7520   20.9520 C   0  0  2  0  0  0  0  0  0  6  0  0
   11.7790   16.9640   20.7470 C   0  0  0  0  0  0  0  0  0  7  0  0
   12.2130   14.9390   22.2050 C   0  0  0  0  0  0  0  0  0  5  0  0
   10.7390   14.4100   22.0930 C   0  0  0  0  0  0  0  0  0  4  0  0
   10.3270   13.6090   23.3680 C   0  0  0  0  0  0  0  0  0  3  0  0
    8.9740   12.8590   23.1390 C   0  0  1  0  0  0  0  0  0  1  0  0
    9.2260   11.5450   22.3800 C   0  0  0  0  0  0  0  0  0  0  0  0
    8.2300   12.6340   24.4660 C   0  0  0  0  0  0  0  0  0  2  0  0
   21.6750   20.7180   16.3560 O   0  0  0  0  0  0  0  0  0 18  0  0
  1  2  1  6
  3  2  1  0
  4  3  1  0
  5  4  2  0
  6  5  1  0
  7  6  1  0
  8  7  1  1
  9  8  1  0
 10  9  1  0
 10  5  1  0
 10  1  1  0
  9 11  1  6
 12 11  1  6
 13 12  1  0
 14 13  1  0
 14  8  1  0
 14 15  1  6
 16 15  1  0
 17 16  1  6
 17 13  1  0
 13 18  1  1
 18 12  1  0
 10 19  1  1
 19  1  1  0
 20 17  1  0
 20 21  1  1
 22 20  1  0
 23 22  1  0
 24 23  1  0
 25 24  1  0
 25 26  1  1
 27 25  1  0
 28  3  2  0
M  END
$$$$
