
     RDKit          3D

 20 22  0  0  0  0  0  0  0  0999 V2000
   19.1430    9.2430   18.8850 C   0  0  0  0  0  0  0  0  0  5  0  0
   18.3780   10.3720   19.0790 C   0  0  0  0  0  0  0  0  0  6  0  0
   19.4770   11.4100   17.2280 C   0  0  0  0  0  0  0  0  0  8  0  0
   20.0810    9.2050   17.8680 C   0  0  0  0  0  0  0  0  0  4  0  0
   18.5410   11.4680   18.2480 C   0  0  0  0  0  0  0  0  0  7  0  0
   20.2710   10.2890   17.0160 C   0  0  0  0  0  0  0  0  0  3  0  0
   19.6360   12.7850   16.1840 Cl  0  0  0  0  0  0  0  0  0  9  0  0
   21.2870   10.2420   15.9010 C   0  0  0  0  0  0  0  0  0  2  0  0
   22.7330   10.6050   16.2600 C   0  0  1  0  0  0  0  0  0  1  0  0
   23.1910    9.6280   17.2140 O   0  0  0  0  0  0  0  0  0  0  0  0
   23.6900   10.5880   15.0880 C   0  0  2  0  0  0  0  0  0 16  0  0
   24.1890    9.3530   14.3690 C   0  0  0  0  0  0  0  0  0 18  0  0
   25.1420   10.2340   15.1570 C   0  0  0  0  0  0  0  0  0 19  0  0
   23.3720   11.9190   13.9080 Cl  0  0  0  0  0  0  0  0  0 17  0  0
   22.7370   11.9790   16.9410 C   0  0  0  0  0  0  0  0  0 10  0  0
   24.0860   12.3260   17.3680 N   0  0  0  0  0  0  0  0  0 11  0  0
   24.7560   13.3580   16.7960 N   0  0  0  0  0  0  0  0  0 15  0  0
   25.9230   13.2890   17.3950 C   0  0  0  0  0  0  0  0  0 14  0  0
   26.0470   12.2930   18.2960 N   0  0  0  0  0  0  0  0  0 13  0  0
   24.8670   11.7220   18.2540 C   0  0  0  0  0  0  0  0  0 12  0  0
  2  1  2  0
  4  1  1  0
  5  2  1  0
  5  3  2  0
  6  4  2  0
  6  3  1  0
  7  3  1  0
  8  6  1  0
  9  8  1  0
  9 10  1  1
 11  9  1  0
 12 11  1  0
 13 12  1  0
 13 11  1  0
 11 14  1  6
 15  9  1  0
 16 15  1  0
 17 16  1  0
 18 17  2  0
 19 18  1  0
 20 19  2  0
 20 16  1  0
M  END
$$$$
