
     RDKit          3D

 27 30  0  0  0  0  0  0  0  0999 V2000
   26.0820   11.1900   14.3060 C   0  0  0  0  0  0  0  0  0 13  0  0
   25.7260   11.9050   13.1760 C   0  0  0  0  0  0  0  0  0 14  0  0
   24.4700   12.4810   13.0850 C   0  0  0  0  0  0  0  0  0 23  0  0
   25.1700   11.0340   15.3310 C   0  0  0  0  0  0  0  0  0 12  0  0
   23.5770   12.3320   14.1280 C   0  0  0  0  0  0  0  0  0 24  0  0
   26.5650   12.0980   12.0740 O   0  0  0  0  0  0  0  0  0 15  0  0
   27.5360   11.1590   11.7130 C   0  0  0  0  0  0  0  0  0 16  0  0
   28.7450   11.6600   11.2590 C   0  0  0  0  0  0  0  0  0 17  0  0
   29.7740   10.7930   10.9440 C   0  0  0  0  0  0  0  0  0 18  0  0
   23.9020   11.5950   15.2690 C   0  0  0  0  0  0  0  0  0 11  0  0
   29.5810    9.4380   11.0870 C   0  0  0  0  0  0  0  0  0 19  0  0
   28.3770    8.9250   11.5140 C   0  0  0  0  0  0  0  0  0 21  0  0
   22.9570   11.3930   16.4130 C   0  0  2  0  0  0  0  0  0  4  0  0
   23.3460   10.2480   17.1630 O   0  0  0  0  0  0  0  0  0  3  0  0
   21.6290   11.1450   15.9610 O   0  0  0  0  0  0  0  0  0 26  0  0
   27.3460    9.7910   11.8230 C   0  0  0  0  0  0  0  0  0 22  0  0
   30.8970    8.3510   10.7500 Cl  0  0  0  0  0  0  0  0  0 20  0  0
   22.0490   13.1340   13.9800 Cl  0  0  0  0  0  0  0  0  0 25  0  0
   22.2780    9.3010   17.1550 C   0  0  0  0  0  0  0  0  0  2  0  0
   21.4270    9.7170   15.9770 C   0  0  1  0  0  0  0  0  0  1  0  0
   22.8600   12.6360   17.3350 C   0  0  0  0  0  0  0  0  0  5  0  0
   24.2200   12.9900   17.7150 N   0  0  0  0  0  0  0  0  0  6  0  0
   24.8490   14.0550   17.1580 N   0  0  0  0  0  0  0  0  0 10  0  0
   26.0450   13.9800   17.6960 C   0  0  0  0  0  0  0  0  0  9  0  0
   26.2280   12.9560   18.5570 N   0  0  0  0  0  0  0  0  0  8  0  0
   25.0530   12.3650   18.5410 C   0  0  0  0  0  0  0  0  0  7  0  0
   19.9570    9.4630   16.1750 C   0  0  0  0  0  0  0  0  0  0  0  0
  2  1  2  0
  3  2  1  0
  4  1  1  0
  5  3  2  0
  6  2  1  0
  7  6  1  0
  8  7  2  0
  9  8  1  0
 10  5  1  0
 10  4  2  0
 11  9  2  0
 12 11  1  0
 13 10  1  0
 14 13  1  0
 15 13  1  0
 16 12  2  0
 16  7  1  0
 17 11  1  0
 18  5  1  0
 19 14  1  0
 20 15  1  0
 20 19  1  0
 13 21  1  1
 22 21  1  0
 23 22  1  0
 24 23  2  0
 25 24  1  0
 26 25  2  0
 26 22  1  0
 20 27  1  1
M  END
$$$$
