
     RDKit          3D

 49 55  0  0  0  0  0  0  0  0999 V2000
    9.6860   12.8000   19.5350 C   0  0  0  0  0  0  0  0  0  9  0  0
    9.2800   11.7770   18.6930 C   0  0  0  0  0  0  0  0  0  8  0  0
    6.0170   15.9850   16.1460 C   0  0  0  0  0  0  0  0  0  0  0  0
    5.7800   14.6940   15.3940 C   0  0  0  0  0  0  0  0  0  1  0  0
    5.2890   13.5870   16.3420 C   0  0  1  0  0  0  0  0  0  2  0  0
    4.3310   12.6710   15.6020 C   0  0  0  0  0  0  0  0  0  3  0  0
    6.4340   12.7660   16.8250 N   0  0  0  0  0  0  0  0  0  4  0  0
    7.4030   13.1210   17.7060 C   0  0  0  0  0  0  0  0  0 47  0  0
    7.5860   14.1970   18.2440 O   0  0  0  0  0  0  0  0  0 48  0  0
    8.1480   11.9540   17.8170 N   0  0  0  0  0  0  0  0  0  7  0  0
    7.6190   10.9830   17.0050 C   0  0  0  0  0  0  0  0  0  6  0  0
    6.5410   11.4760   16.3750 N   0  0  0  0  0  0  0  0  0  5  0  0
   10.8420   12.6660   20.2810 C   0  0  0  0  0  0  0  0  0 10  0  0
   11.6120   11.5100   20.1940 C   0  0  0  0  0  0  0  0  0 11  0  0
   11.1660   10.4670   19.3900 C   0  0  0  0  0  0  0  0  0 45  0  0
   10.0130   10.6020   18.6400 C   0  0  0  0  0  0  0  0  0 46  0  0
   12.8520   11.4540   20.7980 N   0  0  0  0  0  0  0  0  0 12  0  0
   13.5110   10.1560   20.9790 C   0  0  0  0  0  0  0  0  0 13  0  0
   14.4010    9.8110   19.7900 C   0  0  0  0  0  0  0  0  0 14  0  0
   15.3020   10.9160   19.4540 N   0  0  0  0  0  0  0  0  0 15  0  0
   15.1910   12.0660   20.3530 C   0  0  0  0  0  0  0  0  0 43  0  0
   13.7610   12.5470   20.4400 C   0  0  0  0  0  0  0  0  0 44  0  0
   16.5710   10.6060   18.9810 C   0  0  0  0  0  0  0  0  0 16  0  0
   17.2710   11.5190   18.2060 C   0  0  0  0  0  0  0  0  0 17  0  0
   18.5230   11.2120   17.7080 C   0  0  0  0  0  0  0  0  0 18  0  0
   19.0970    9.9880   17.9930 C   0  0  0  0  0  0  0  0  0 19  0  0
   18.4170    9.0670   18.7720 C   0  0  0  0  0  0  0  0  0 41  0  0
   17.1580    9.3740   19.2580 C   0  0  0  0  0  0  0  0  0 42  0  0
   20.3400    9.8450   17.4290 O   0  0  0  0  0  0  0  0  0 20  0  0
   21.0830    8.6410   17.6580 C   0  0  0  0  0  0  0  0  0 21  0  0
   22.0980    8.5320   16.5560 C   0  0  1  0  0  0  0  0  0 22  0  0
   21.5440    9.0870   15.2720 C   0  0  0  0  0  0  0  0  0 23  0  0
   21.8090   10.4650   15.3730 O   0  0  0  0  0  0  0  0  0 24  0  0
   23.0740   10.5790   16.0020 C   0  0  2  0  0  0  0  0  0 25  0  0
   23.2330    9.3990   16.7990 O   0  0  0  0  0  0  0  0  0 40  0  0
   22.9600   11.7920   16.9590 C   0  0  0  0  0  0  0  0  0 26  0  0
   24.2970   12.1580   17.3950 N   0  0  0  0  0  0  0  0  0 27  0  0
   25.1370   11.5010   18.1810 C   0  0  0  0  0  0  0  0  0 28  0  0
   26.2520   12.1710   18.3450 N   0  0  0  0  0  0  0  0  0 29  0  0
   26.0330   13.2760   17.6030 C   0  0  0  0  0  0  0  0  0 30  0  0
   24.8670   13.3280   17.0000 N   0  0  0  0  0  0  0  0  0 31  0  0
   24.1370   10.7180   14.8990 C   0  0  0  0  0  0  0  0  0 32  0  0
   24.1100   11.7220   13.9250 C   0  0  0  0  0  0  0  0  0 38  0  0
   25.0920   11.8230   12.9550 C   0  0  0  0  0  0  0  0  0 37  0  0
   26.1210   10.9080   12.9590 C   0  0  0  0  0  0  0  0  0 35  0  0
   26.1880    9.9080   13.9010 C   0  0  0  0  0  0  0  0  0 34  0  0
   25.1970    9.8210   14.8600 C   0  0  0  0  0  0  0  0  0 33  0  0
   27.3750   11.0340   11.7530 Cl  0  0  0  0  0  0  0  0  0 36  0  0
   22.8490   12.9100   13.8860 Cl  0  0  0  0  0  0  0  0  0 39  0  0
  2  1  2  0
  4  3  1  0
  5  4  1  0
  5  6  1  6
  7  5  1  0
  8  7  1  0
  9  8  2  0
 10  8  1  0
  2 10  1  0
 11 10  1  0
 12 11  2  0
 12  7  1  0
 13  1  1  0
 14 13  2  0
 15 14  1  0
 16  2  1  0
 16 15  2  0
 14 17  1  0
 18 17  1  0
 19 18  1  0
 20 19  1  0
 21 20  1  0
 22 21  1  0
 22 17  1  0
 23 20  1  0
 24 23  2  0
 25 24  1  0
 26 25  2  0
 27 26  1  0
 28 27  2  0
 28 23  1  0
 29 26  1  0
 30 29  1  0
 31 30  1  1
 32 31  1  0
 33 32  1  0
 34 33  1  0
 35 34  1  0
 35 31  1  0
 34 36  1  1
 37 36  1  0
 38 37  1  0
 39 38  2  0
 40 39  1  0
 41 40  2  0
 41 37  1  0
 42 34  1  0
 43 42  2  0
 44 43  1  0
 45 44  2  0
 46 45  1  0
 47 46  2  0
 47 42  1  0
 48 45  1  0
 49 43  1  0
M  END
$$$$
