
     RDKit          3D

  8  8  0  0  0  0  0  0  0  0999 V2000
   -0.6120   49.8120    2.9730 Cl  0  0  0  0  0  0  0  0  0  7  0  0
    0.1000   48.8130    3.8760 C   0  0  0  0  0  0  0  0  0  6  0  0
   -0.3810   48.5050    5.0800 C   0  0  0  0  0  0  0  0  0  5  0  0
    0.1360   47.6080    6.0170 C   0  0  0  0  0  0  0  0  0  4  0  0
    1.2470   46.9760    5.5960 C   0  0  0  0  0  0  0  0  0  3  0  0
    1.7450   47.2740    4.2900 C   0  0  0  0  0  0  0  0  0  2  0  0
    1.2480   48.1530    3.3950 C   0  0  0  0  0  0  0  0  0  1  0  0
    1.8720   48.4150    2.1460 C   0  0  0  0  0  0  0  0  0  0  0  0
  2  1  1  0
  3  2  2  0
  4  3  1  0
  5  4  2  0
  6  5  1  0
  7  6  2  0
  7  2  1  0
  7  8  1  0
M  END
$$$$
