
     RDKit          3D

 26 30  0  0  0  0  0  0  0  0999 V2000
    2.0670    7.8930   53.3620 C   0  0  0  0  0  0  0  0  0  2  0  0
    0.8680    7.6680   54.2470 C   0  0  0  0  0  0  0  0  0  3  0  0
    0.7660    8.7730   55.2490 C   0  0  2  0  0  0  0  0  0  4  0  0
   -0.2390    8.3450   56.1600 O   0  0  0  0  0  0  0  0  0  5  0  0
    0.4160   10.0280   54.4790 C   0  0  0  0  0  0  0  0  0  6  0  0
    1.5680   10.3070   53.5410 C   0  0  0  0  0  0  0  0  0  7  0  0
    2.1270   11.5330   53.5580 C   0  0  0  0  0  0  0  0  0  8  0  0
    3.2450   11.9450   52.6220 C   0  0  0  0  0  0  0  0  0  9  0  0
    3.5310   10.9180   51.5390 C   0  0  2  0  0  0  0  0  0 10  0  0
    3.4780    9.5230   52.1350 C   0  0  1  0  0  0  0  0  0 11  0  0
    2.0410    9.2140   52.6050 C   0  0  1  0  0  0  0  0  0  1  0  0
    4.1240    8.4200   51.2490 C   0  0  0  0  0  0  0  0  0 12  0  0
    5.3550    8.7870   50.3730 C   0  0  0  0  0  0  0  0  0 13  0  0
    5.2390   10.1840   49.7880 C   0  0  1  0  0  0  0  0  0 14  0  0
    4.9330   11.1010   50.9830 C   0  0  1  0  0  0  0  0  0 25  0  0
    5.3400   12.5130   50.5770 C   0  0  0  0  0  0  0  0  0 24  0  0
    6.6660   12.1990   49.9080 C   0  0  0  0  0  0  0  0  0 23  0  0
    6.4370   10.9060   49.1110 C   0  0  0  0  0  0  0  0  0 16  0  0
    4.1170   10.1130   48.7430 C   0  0  0  0  0  0  0  0  0 15  0  0
    1.0090    9.1510   51.4730 C   0  0  0  0  0  0  0  0  0  0  0  0
    7.6930   10.1680   48.7870 C   0  0  0  0  0  0  0  0  0 17  0  0
    8.9520   10.6600   49.0870 C   0  0  0  0  0  0  0  0  0 22  0  0
   10.0920   10.0440   48.7390 N   0  0  0  0  0  0  0  0  0 21  0  0
   10.0000    8.8990   48.0490 C   0  0  0  0  0  0  0  0  0 20  0  0
    8.7810    8.3740   47.6740 C   0  0  0  0  0  0  0  0  0 19  0  0
    7.6160    9.0200   48.0390 C   0  0  0  0  0  0  0  0  0 18  0  0
  2  1  1  0
  3  2  1  0
  3  4  1  1
  5  3  1  0
  6  5  1  0
  7  6  2  0
  8  7  1  0
  9  8  1  1
 10  9  1  0
 11 10  1  0
 11  6  1  0
 11  1  1  0
 10 12  1  6
 13 12  1  0
 14 13  1  0
 15 14  1  0
 15  9  1  0
 15 16  1  6
 17 16  1  0
 18 14  1  0
 18 17  2  0
 14 19  1  6
 11 20  1  6
 21 18  1  0
 21 22  2  0
 23 22  1  0
 24 23  2  0
 25 24  1  0
 26 25  2  0
 26 21  1  0
M  END
$$$$
