
     RDKit          3D

 23 26  0  0  0  0  0  0  0  0999 V2000
    4.0880    0.2070    2.1080 C   0  0  0  0  0  0  0  0  0 15  0  0
    3.2590   -0.3100    3.2660 C   0  0  0  0  0  0  0  0  0 14  0  0
    3.0230    0.6250    4.2430 C   0  0  0  0  0  0  0  0  0 12  0  0
    2.7130    0.2370    5.3690 O   0  0  0  0  0  0  0  0  0 13  0  0
    3.1010    1.9860    3.9930 C   0  0  0  0  0  0  0  0  0 11  0  0
    3.5020    2.5140    2.7600 C   0  0  0  0  0  0  0  0  0 10  0  0
    3.5690    3.9120    2.6230 C   0  0  0  0  0  0  0  0  0  9  0  0
    4.9460    4.3660    2.2060 C   0  0  0  0  0  0  0  0  0  8  0  0
    5.3320    3.6740    0.9330 C   0  0  2  0  0  0  0  0  0  7  0  0
    5.2030    2.1620    1.0850 C   0  0  1  0  0  0  0  0  0 18  0  0
    3.8330    1.6880    1.6530 C   0  0  1  0  0  0  0  0  0 16  0  0
    5.5690    1.4270   -0.2690 C   0  0  0  0  0  0  0  0  0 19  0  0
    7.0010    1.8040   -0.6480 C   0  0  0  0  0  0  0  0  0 20  0  0
    7.1240    3.3070   -0.8010 C   0  0  1  0  0  0  0  0  0 21  0  0
    6.8320    3.8890    0.5810 C   0  0  1  0  0  0  0  0  0  6  0  0
    7.3210    5.3150    0.4740 C   0  0  0  0  0  0  0  0  0  5  0  0
    8.5400    5.2300   -0.5000 C   0  0  0  0  0  0  0  0  0  4  0  0
    8.5710    3.7930   -1.0610 C   0  0  2  0  0  0  0  0  0  3  0  0
    6.1660    3.7980   -1.9020 C   0  0  0  0  0  0  0  0  0 22  0  0
    2.7240    1.7420    0.5820 C   0  0  0  0  0  0  0  0  0 17  0  0
    9.0650    3.6670   -2.5610 C   0  0  0  0  0  0  0  0  0  1  0  0
    9.8410    2.7640   -2.8840 O   0  0  0  0  0  0  0  0  0  2  0  0
    8.5630    4.6500   -3.6670 C   0  0  0  0  0  0  0  0  0  0  0  0
  2  1  1  0
  3  2  1  0
  4  3  2  0
  5  3  1  0
  6  5  2  0
  7  6  1  0
  8  7  1  0
  9  8  1  1
 10  9  1  0
 11 10  1  0
 11  6  1  0
 11  1  1  0
 10 12  1  6
 13 12  1  0
 14 13  1  0
 15  9  1  0
 15 14  1  0
 15 16  1  6
 17 16  1  0
 18 17  1  0
 18 14  1  0
 14 19  1  6
 11 20  1  6
 18 21  1  6
 22 21  2  0
 23 21  1  0
M  END
$$$$
