
     RDKit          3D

  8  8  0  0  0  0  0  0  0  0999 V2000
  -40.1680   24.1990   -7.1640 C   0  0  0  0  0  0  0  0  0  0  0  0
  -40.8900   24.5550   -8.4780 C   0  0  0  0  0  0  0  0  0  1  0  0
  -42.2210   24.1830   -8.7190 C   0  0  0  0  0  0  0  0  0  2  0  0
  -42.9060   24.4880   -9.8450 C   0  0  0  0  0  0  0  0  0  3  0  0
  -42.2480   25.1920  -10.8320 C   0  0  0  0  0  0  0  0  0  4  0  0
  -43.1870   25.7220  -12.3910 Br  0  0  0  0  0  0  0  0  0  5  0  0
  -40.9120   25.5970  -10.6790 C   0  0  0  0  0  0  0  0  0  6  0  0
  -40.2960   25.2400   -9.4880 C   0  0  0  0  0  0  0  0  0  7  0  0
  2  1  1  0
  3  2  2  0
  4  3  1  0
  5  4  2  0
  5  6  1  0
  7  5  1  0
  8  7  2  0
  8  2  1  0
M  END
$$$$
