
     RDKit          3D

 21 24  0  0  0  0  0  0  0  0999 V2000
    5.4840    4.4460   12.5240 C   0  0  0  0  0  0  0  0  0 13  0  0
    4.3120    3.9870   11.6680 C   0  0  0  0  0  0  0  0  0 12  0  0
    3.0650    3.8840   12.4920 C   0  0  0  0  0  0  0  0  0 10  0  0
    1.9600    4.2260   12.0910 O   0  0  0  0  0  0  0  0  0 11  0  0
    3.2900    3.3410   13.8150 C   0  0  0  0  0  0  0  0  0  9  0  0
    4.4930    2.9210   14.2200 C   0  0  0  0  0  0  0  0  0  8  0  0
    4.5390    2.0070   15.3970 C   0  0  0  0  0  0  0  0  0  7  0  0
    5.5610    0.9090   15.1020 C   0  0  0  0  0  0  0  0  0  6  0  0
    6.9300    1.5330   14.8160 C   0  0  2  0  0  0  0  0  0  5  0  0
    6.8650    2.4870   13.5950 C   0  0  1  0  0  0  0  0  0  4  0  0
    5.7800    3.6020   13.7870 C   0  0  1  0  0  0  0  0  0 14  0  0
    8.2690    3.0020   13.2630 C   0  0  0  0  0  0  0  0  0  3  0  0
    9.3100    1.8840   13.0910 C   0  0  0  0  0  0  0  0  0  2  0  0
    9.3670    0.9650   14.3250 C   0  0  1  0  0  0  0  0  0  1  0  0
    7.9540    0.4410   14.5930 C   0  0  1  0  0  0  0  0  0 16  0  0
    8.1630   -0.6430   15.6550 C   0  0  0  0  0  0  0  0  0 17  0  0
    9.4530   -1.3390   15.1730 C   0  0  0  0  0  0  0  0  0 18  0  0
   10.0840   -0.3760   14.1440 C   0  0  2  0  0  0  0  0  0 19  0  0
   11.4870   -0.2500   14.2770 O   0  0  0  0  0  0  0  0  0 20  0  0
    9.9540    1.7170   15.5330 C   0  0  0  0  0  0  0  0  0  0  0  0
    6.2030    4.6320   14.8320 C   0  0  0  0  0  0  0  0  0 15  0  0
  1  2  1  1
  2  3  1  6
  4  3  2  0
  5  3  1  0
  6  5  2  0
  7  6  1  1
  8  7  1  6
  9  8  1  6
 10  9  1  0
 11  6  1  1
 11 10  1  0
 11  1  1  0
 10 12  1  1
 12 13  1  6
 13 14  1  6
 15 14  1  0
 15  9  1  0
 15 16  1  1
 16 17  1  1
 17 18  1  1
 14 18  1  0
 18 19  1  1
 14 20  1  1
 21 11  1  1
M  END
$$$$
