
     RDKit          3D

 10 11  0  0  0  0  0  0  0  0999 V2000
   46.2370   44.2840   14.6880 C   0  0  2  0  0  0  0  0  0  0  0  0
   44.6790   44.1680   14.3050 C   0  0  0  0  0  0  0  0  0  0  0  0
   44.5950   44.2610   12.7480 C   0  0  0  0  0  0  0  0  0  0  0  0
   46.0760   44.4430   12.2310 C   0  0  1  0  0  0  0  0  0  0  0  0
   46.5190   45.8820   12.7690 C   0  0  0  0  0  0  0  0  0  0  0  0
   46.6130   45.7540   14.3200 C   0  0  0  0  0  0  0  0  0  0  0  0
   46.8020   43.5790   13.3640 C   0  0  2  0  0  0  0  0  0  0  0  0
   46.5360   42.0460   13.3010 C   0  0  0  0  0  0  0  0  0  0  0  0
   48.3370   43.5410   13.1890 C   0  0  0  0  0  0  0  0  0  0  0  0
   46.5800   43.6920   15.9890 C   0  0  0  0  0  0  0  0  0  0  0  0
  2  1  1  0
  3  2  1  0
  4  3  1  1
  5  4  1  0
  6  5  1  0
  6  1  1  0
  7  4  1  0
  7  1  1  0
  7  8  1  1
  9  7  1  0
  1 10  1  1
M  END
$$$$
