
     RDKit          3D

 11 12  0  0  0  0  0  0  0  0999 V2000
   57.0380   14.4760   33.8280 C   0  0  2  0  0  0  0  0  0  0  0  0
   57.0150   15.9300   33.5660 C   0  0  0  0  0  0  0  0  0  0  0  0
   57.3800   16.9180   34.4830 O   0  0  0  0  0  0  0  0  0  0  0  0
   56.5380   16.1720   32.1750 C   0  0  0  0  0  0  0  0  0  0  0  0
   56.3160   14.7700   31.7610 C   0  0  1  0  0  0  0  0  0  0  0  0
   57.6960   14.1970   31.5910 C   0  0  0  0  0  0  0  0  0  0  0  0
   58.1970   14.0080   32.9950 C   0  0  0  0  0  0  0  0  0  0  0  0
   55.8380   14.0880   33.0120 C   0  0  1  0  0  0  0  0  0  0  0  0
   55.7370   12.6190   32.8240 C   0  0  0  0  0  0  0  0  0  0  0  0
   54.5460   14.6070   33.5270 C   0  0  0  0  0  0  0  0  0  0  0  0
   57.0910   14.1140   35.2690 C   0  0  0  0  0  0  0  0  0  0  0  0
  2  1  1  0
  3  2  1  0
  4  2  1  0
  5  4  1  1
  6  5  1  0
  7  6  1  0
  7  1  1  0
  8  5  1  0
  8  1  1  0
  8  9  1  6
 10  8  1  0
  1 11  1  1
M  END
$$$$
