
     RDKit          3D

  8  8  0  0  0  0  0  0  0  0999 V2000
  -40.2640   25.0090   -7.2720 C   0  0  0  0  0  0  0  0  0  0  0  0
  -41.2560   25.0110   -8.3240 C   0  0  0  0  0  0  0  0  0  1  0  0
  -40.9890   25.5780   -9.5310 C   0  0  0  0  0  0  0  0  0  7  0  0
  -41.9290   25.6270  -10.5670 C   0  0  0  0  0  0  0  0  0  5  0  0
  -41.4600   26.4610  -11.9690 Cl  0  0  0  0  0  0  0  0  0  6  0  0
  -43.1560   25.0540  -10.5190 C   0  0  0  0  0  0  0  0  0  4  0  0
  -43.4620   24.4240   -9.3110 C   0  0  0  0  0  0  0  0  0  3  0  0
  -42.5160   24.3950   -8.2440 C   0  0  0  0  0  0  0  0  0  2  0  0
  2  1  1  0
  3  2  2  0
  4  3  1  0
  5  4  1  0
  6  4  2  0
  7  6  1  0
  8  7  2  0
  8  2  1  0
M  END
$$$$
