
     RDKit          3D

 22 21  0  0  0  0  0  0  0  0999 V2000
    2.6900  -68.7590   72.4780 O   0  0  0  0  0  0  0  0  0 20  0  0
    2.4660  -68.3220   71.3250 C   0  0  0  0  0  0  0  0  0 19  0  0
    3.1770  -67.4090   70.8770 O   0  0  0  0  0  0  0  0  0 21  0  0
    1.2860  -68.8550   70.4690 C   0  0  0  0  0  0  0  0  0 18  0  0
    1.7720  -69.8730   69.4710 C   0  0  0  0  0  0  0  0  0 17  0  0
    1.3830  -71.2540   69.9450 C   0  0  0  0  0  0  0  0  0 16  0  0
    2.5710  -71.9460   70.6180 C   0  0  0  0  0  0  0  0  0 15  0  0
    3.0810  -73.1130   69.7830 C   0  0  0  0  0  0  0  0  0 14  0  0
    3.6920  -74.1670   70.7210 C   0  0  0  0  0  0  0  0  0 13  0  0
    4.5070  -75.1780   69.9230 C   0  0  0  0  0  0  0  0  0 12  0  0
    5.2550  -76.0700   70.8840 C   0  0  0  0  0  0  0  0  0 11  0  0
    6.0800  -77.1000   70.1620 C   0  0  0  0  0  0  0  0  0 10  0  0
    6.4910  -78.1540   71.1430 C   0  0  0  0  0  0  0  0  0  9  0  0
    7.6440  -78.9940   70.6120 C   0  0  0  0  0  0  0  0  0  8  0  0
    7.9660  -80.0670   71.6350 C   0  0  0  0  0  0  0  0  0  7  0  0
    9.0740  -80.9890   71.1810 C   0  0  0  0  0  0  0  0  0  6  0  0
    8.7060  -82.4260   71.5540 C   0  0  0  0  0  0  0  0  0  5  0  0
    9.4280  -83.4140   70.6310 C   0  0  0  0  0  0  0  0  0  4  0  0
    8.7670  -84.7930   70.7100 C   0  0  0  0  0  0  0  0  0  3  0  0
    8.7470  -85.4590   69.3450 C   0  0  0  0  0  0  0  0  0  2  0  0
    7.4050  -86.1410   69.1940 C   0  0  0  0  0  0  0  0  0  1  0  0
    7.3790  -86.9270   67.9040 C   0  0  0  0  0  0  0  0  0  0  0  0
  2  1  2  0
  3  2  1  0
  4  2  1  0
  5  4  1  0
  6  5  1  0
  7  6  1  0
  8  7  1  0
  9  8  1  0
 10  9  1  0
 11 10  1  0
 12 11  1  0
 13 12  1  0
 14 13  1  0
 15 14  1  0
 16 15  1  0
 17 16  1  0
 18 17  1  0
 19 18  1  0
 20 19  1  0
 21 20  1  0
 22 21  1  0
M  END
$$$$
