
     RDKit          3D

 37 40  0  0  0  0  0  0  0  0999 V2000
   -1.3710   23.2780    6.8790 F   0  0  0  0  0  0  0  0  0 30  0  0
   -1.3770   22.6490    5.7060 C   0  0  2  0  0  0  0  0  0 29  0  0
   -0.1760   22.8400    5.1600 F   0  0  0  0  0  0  0  0  0 31  0  0
   -2.2610   23.2820    4.9360 F   0  0  0  0  0  0  0  0  0 32  0  0
   -1.6940   21.2050    5.8610 C   0  0  0  0  0  0  0  0  0 28  0  0
   -2.0780   20.6970    4.5770 O   0  0  0  0  0  0  0  0  0 27  0  0
   -3.2950   20.0750    4.5250 C   0  0  0  0  0  0  0  0  0 26  0  0
   -4.2960   20.6220    5.3050 C   0  0  0  0  0  0  0  0  0 25  0  0
   -5.5480   20.0420    5.3100 C   0  0  0  0  0  0  0  0  0 24  0  0
   -3.5530   18.9430    3.7690 C   0  0  0  0  0  0  0  0  0 33  0  0
   -4.8170   18.3780    3.7900 C   0  0  0  0  0  0  0  0  0 34  0  0
   -5.8310   18.9080    4.5700 C   0  0  0  0  0  0  0  0  0 23  0  0
   -7.1970   18.3410    4.5980 C   0  0  0  0  0  0  0  0  0 22  0  0
   -8.0770   18.5510    3.5480 C   0  0  0  0  0  0  0  0  0 35  0  0
   -9.3370   18.0970    3.5350 N   0  0  0  0  0  0  0  0  0 36  0  0
   -7.6930   17.6490    5.6950 C   0  0  0  0  0  0  0  0  0 21  0  0
   -8.9830   17.1760    5.6950 C   0  0  0  0  0  0  0  0  0 20  0  0
   -9.7780   17.4040    4.5880 C   0  0  0  0  0  0  0  0  0 19  0  0
  -11.2130   16.9610    4.5210 C   0  0  2  0  0  0  0  0  0 16  0  0
  -11.9710   17.8640    3.8550 F   0  0  0  0  0  0  0  0  0 17  0  0
  -11.7650   16.8840    5.7520 F   0  0  0  0  0  0  0  0  0 18  0  0
  -11.3760   15.5940    3.8250 C   0  0  1  0  0  0  0  0  0  1  0  0
  -10.7990   15.6560    2.3980 C   0  0  0  0  0  0  0  0  0  2  0  0
  -11.0920   14.4290    1.6840 N   0  0  0  0  0  0  0  0  0  3  0  0
  -11.3030   14.4100    0.3730 N   0  0  0  0  0  0  0  0  0  7  0  0
  -11.5380   13.1750    0.0800 N   0  0  0  0  0  0  0  0  0  6  0  0
  -11.4890   12.3990    1.1950 N   0  0  0  0  0  0  0  0  0  5  0  0
  -11.2040   13.1930    2.1850 C   0  0  0  0  0  0  0  0  0  4  0  0
  -10.6210   14.6310    4.5470 O   0  0  0  0  0  0  0  0  0  0  0  0
  -12.8600   15.2270    3.8210 C   0  0  0  0  0  0  0  0  0  8  0  0
  -13.7380   15.6210    2.8280 C   0  0  0  0  0  0  0  0  0 14  0  0
  -13.2710   16.3550    1.7950 F   0  0  0  0  0  0  0  0  0 15  0  0
  -15.0760   15.3170    2.8090 C   0  0  0  0  0  0  0  0  0 13  0  0
  -15.5430   14.5730    3.8500 C   0  0  0  0  0  0  0  0  0 11  0  0
  -16.8600   14.2540    3.8640 F   0  0  0  0  0  0  0  0  0 12  0  0
  -14.7510   14.1440    4.8720 C   0  0  0  0  0  0  0  0  0 10  0  0
  -13.4070   14.4740    4.8520 C   0  0  0  0  0  0  0  0  0  9  0  0
  2  1  1  1
  3  2  1  0
  4  2  1  0
  5  2  1  0
  6  5  1  0
  7  6  1  0
  8  7  2  0
  9  8  1  0
 10  7  1  0
 11 10  2  0
 12  9  2  0
 12 11  1  0
 13 12  1  0
 14 13  2  0
 15 14  1  0
 16 13  1  0
 17 16  2  0
 18 15  2  0
 18 17  1  0
 19 18  1  0
 19 20  1  6
 21 19  1  0
 22 19  1  0
 23 22  1  0
 24 23  1  0
 25 24  1  0
 26 25  2  0
 27 26  1  0
 28 27  2  0
 28 24  1  0
 22 29  1  1
 30 22  1  0
 31 30  2  0
 32 31  1  0
 33 31  1  0
 34 33  2  0
 35 34  1  0
 36 34  1  0
 37 36  2  0
 37 30  1  0
M  END
$$$$
