
     RDKit          3D

 28 31  0  0  0  0  0  0  0  0999 V2000
   90.1120  174.0500   75.4490 C   0  0  0  0  0  0  0  0  0 20  0  0
   90.7020  175.1360   74.5150 C   0  0  0  0  0  0  0  0  0 19  0  0
   89.5720  175.6640   73.6040 C   0  0  1  0  0  0  0  0  0 17  0  0
   88.5350  176.3700   74.5580 C   0  0  0  0  0  0  0  0  0 16  0  0
   87.9290  175.3400   75.4850 C   0  0  0  0  0  0  0  0  0 15  0  0
   86.6180  175.3080   75.6290 C   0  0  0  0  0  0  0  0  0 14  0  0
   85.8720  174.4150   76.5810 C   0  0  0  0  0  0  0  0  0 13  0  0
   86.8510  173.7780   77.6330 C   0  0  2  0  0  0  0  0  0 12  0  0
   88.1720  173.3420   76.9650 C   0  0  1  0  0  0  0  0  0 23  0  0
   88.9360  174.5440   76.3460 C   0  0  1  0  0  0  0  0  0 21  0  0
   89.0270  172.6890   78.1010 C   0  0  0  0  0  0  0  0  0 24  0  0
   88.3790  171.4090   78.7080 C   0  0  0  0  0  0  0  0  0 25  0  0
   86.9670  171.7550   79.2960 C   0  0  1  0  0  0  0  0  0 26  0  0
   86.1990  172.5060   78.1490 C   0  0  1  0  0  0  0  0  0 11  0  0
   84.7910  172.6370   78.7820 C   0  0  0  0  0  0  0  0  0 10  0  0
   84.5760  171.2010   79.4300 C   0  0  0  0  0  0  0  0  0  9  0  0
   86.0040  170.5670   79.5500 C   0  0  2  0  0  0  0  0  0  8  0  0
   87.0880  172.6710   80.6170 C   0  0  0  0  0  0  0  0  0 27  0  0
   89.4810  175.5280   77.4510 C   0  0  0  0  0  0  0  0  0 22  0  0
   86.1590  169.8240   80.9110 C   0  0  2  0  0  0  0  0  0  6  0  0
   87.6270  169.2680   81.0320 C   0  0  0  0  0  0  0  0  0  7  0  0
   85.1590  168.6450   80.9680 C   0  0  0  0  0  0  0  0  0  5  0  0
   85.6220  167.4450   80.0360 C   0  0  0  0  0  0  0  0  0  4  0  0
   84.5470  166.4260   80.1260 C   0  0  0  0  0  0  0  0  0  3  0  0
   84.6800  165.0690   79.3190 C   0  0  1  0  0  0  0  0  0  1  0  0
   85.4980  165.1630   78.0480 C   0  0  0  0  0  0  0  0  0  0  0  0
   85.1880  163.9730   80.2040 C   0  0  0  0  0  0  0  0  0  2  0  0
   90.2230  176.5600   72.6980 O   0  0  0  0  0  0  0  0  0 18  0  0
  2  1  1  0
  3  2  1  0
  4  3  1  0
  5  4  1  0
  6  5  2  0
  7  6  1  0
  8  7  1  6
  9  8  1  0
 10  1  1  0
 10  9  1  0
 10  5  1  0
  9 11  1  1
 12 11  1  0
 13 12  1  0
 14 13  1  0
 14  8  1  0
 14 15  1  1
 16 15  1  0
 17 16  1  1
 17 13  1  0
 13 18  1  1
 10 19  1  1
 20 17  1  0
 20 21  1  6
 22 20  1  0
 23 22  1  0
 24 23  1  0
 25 24  1  0
 25 26  1  6
 27 25  1  0
  3 28  1  6
M  END
$$$$
