
     RDKit          3D

 36 37  0  0  0  0  0  0  0  0999 V2000
  -20.6400   38.8400   34.9360 C   0  0  0  0  0  0  0  0  0  0  0  0
  -20.3170   39.1010   33.5030 C   0  0  0  0  0  0  0  0  0  1  0  0
  -21.4510   38.5710   32.5970 C   0  0  1  0  0  0  0  0  0  2  0  0
  -21.9610   39.5810   31.6190 O   0  0  0  0  0  0  0  0  0  3  0  0
  -23.1180   40.3500   31.7470 C   0  0  0  0  0  0  0  0  0  4  0  0
  -23.8580   40.2390   32.7160 O   0  0  0  0  0  0  0  0  0  5  0  0
  -23.4560   41.3600   30.6500 C   0  0  2  0  0  0  0  0  0  6  0  0
  -24.1630   42.6250   31.2150 C   0  0  0  0  0  0  0  0  0  7  0  0
  -24.3490   40.7430   29.5640 C   0  0  0  0  0  0  0  0  0  8  0  0
  -25.4480   40.2550   29.9080 O   0  0  0  0  0  0  0  0  0  9  0  0
  -23.9260   40.7980   28.0550 C   0  0  1  0  0  0  0  0  0 10  0  0
  -22.3730   40.8910   27.9920 C   0  0  0  0  0  0  0  0  0 11  0  0
  -24.4120   39.5640   27.1700 C   0  0  1  0  0  0  0  0  0 12  0  0
  -23.4280   39.1980   26.1190 O   0  0  0  0  0  0  0  0  0 13  0  0
  -24.0760   39.2920   24.8000 C   0  0  1  0  0  0  0  0  0 14  0  0
  -25.5540   39.1580   24.8480 O   0  0  0  0  0  0  0  0  0 15  0  0
  -26.0680   38.9680   23.5100 C   0  0  1  0  0  0  0  0  0 16  0  0
  -27.5470   38.6100   23.5340 C   0  0  0  0  0  0  0  0  0 17  0  0
  -25.8380   40.2360   22.7120 C   0  0  0  0  0  0  0  0  0 18  0  0
  -24.2840   40.5070   22.6030 C   0  0  1  0  0  0  0  0  0 19  0  0
  -24.0390   41.7630   21.8090 N   0  0  0  0  0  0  0  0  0 20  0  0
  -23.1050   42.6750   22.5370 C   0  0  0  0  0  0  0  0  0 21  0  0
  -23.4140   41.4090   20.5190 C   0  0  0  0  0  0  0  0  0 22  0  0
  -23.6460   40.5760   24.0680 C   0  0  1  0  0  0  0  0  0 23  0  0
  -24.1460   41.7280   24.7830 O   0  0  0  0  0  0  0  0  0 24  0  0
  -24.7720   38.1700   27.9300 C   0  0  1  0  0  0  0  0  0 25  0  0
  -26.2400   37.7760   27.6920 C   0  0  0  0  0  0  0  0  0 26  0  0
  -23.7280   37.0780   27.4450 C   0  0  0  0  0  0  0  0  0 27  0  0
  -23.7190   35.6130   27.8980 C   0  0  1  0  0  0  0  0  0 28  0  0
  -22.8140   34.6500   27.1080 C   0  0  0  0  0  0  0  0  0 29  0  0
  -23.3760   35.5830   29.3940 C   0  0  0  0  0  0  0  0  0 30  0  0
  -24.1620   35.0310   30.1570 O   0  0  0  0  0  0  0  0  0 31  0  0
  -22.1520   36.1820   29.9650 C   0  0  0  0  0  0  0  0  0 32  0  0
  -22.1290   36.6830   31.1960 C   0  0  0  0  0  0  0  0  0 33  0  0
  -20.9380   37.3250   31.8560 C   0  0  1  0  0  0  0  0  0 34  0  0
  -19.8220   37.7460   30.8340 C   0  0  0  0  0  0  0  0  0 35  0  0
  2  1  1  0
  3  2  1  6
  4  3  1  0
  5  4  1  0
  6  5  2  0
  7  5  1  0
  7  8  1  1
  9  7  1  0
  9 10  2  0
 11  9  1  0
 11 12  1  1
 13 11  1  0
 13 14  1  6
 15 14  1  1
 16 15  1  0
 17 16  1  0
 17 18  1  1
 19 17  1  0
 20 19  1  0
 20 21  1  1
 22 21  1  0
 23 21  1  0
 24 20  1  0
 24 15  1  0
 24 25  1  1
 26 13  1  0
 26 27  1  6
 28 26  1  0
 29 28  1  0
 29 30  1  6
 31 29  1  0
 32 31  2  0
 33 31  1  0
 34 33  2  3
 35 34  1  0
 35  3  1  0
 35 36  1  6
M  END
$$$$
