
     RDKit          3D

 37 41  0  0  0  0  0  0  0  0999 V2000
   19.0710    0.3070   13.5110 C   0  0  0  0  0  0  0  0  0 22  0  0
   19.8570   -3.4380   13.2950 C   0  0  0  0  0  0  0  0  0 15  0  0
   19.4290   -4.5610   14.2170 C   0  0  0  0  0  0  0  0  0 14  0  0
   18.3960   -3.3330   16.0580 C   0  0  0  0  0  0  0  0  0 11  0  0
   17.1250   -3.0390   16.7600 C   0  0  0  0  0  0  0  0  0 10  0  0
   16.8720   -2.2870   17.8210 C   0  0  0  0  0  0  0  0  0  9  0  0
   17.8860   -1.5700   18.6540 C   0  0  0  0  0  0  0  0  0  8  0  0
   17.3590   -0.2220   19.1500 C   0  0  2  0  0  0  0  0  0  7  0  0
   16.1270   -0.4000   20.0530 C   0  0  2  0  0  0  0  0  0  6  0  0
   15.6790    0.9640   20.6170 C   0  0  1  0  0  0  0  0  0 31  0  0
   20.2480    0.2420   12.6330 C   0  0  0  0  0  0  0  0  0 20  0  0
   15.4450    1.9560   19.4940 C   0  0  0  0  0  0  0  0  0 29  0  0
   16.6140    2.0920   18.5560 C   0  0  0  0  0  0  0  0  0 28  0  0
   17.0010    0.7270   18.0030 C   0  0  1  0  0  0  0  0  0 27  0  0
   18.1410    1.0110   17.0830 C   0  0  0  0  0  0  0  0  0 26  0  0
   18.1930    0.5920   15.8410 C   0  0  0  0  0  0  0  0  0 25  0  0
   16.3400   -1.2490   21.2870 C   0  0  0  0  0  0  0  0  0  5  0  0
   15.1320   -0.9010   22.1680 C   0  0  2  0  0  0  0  0  0  4  0  0
   14.6440    0.4560   21.6270 C   0  0  1  0  0  0  0  0  0 32  0  0
   15.5000   -0.6250   23.6310 C   0  0  0  0  0  0  0  0  0  3  0  0
   14.3630    0.3160   24.0230 C   0  0  2  0  0  0  0  0  0  2  0  0
   14.3570    1.3190   22.8660 C   0  0  2  0  0  0  0  0  0 33  0  0
   14.7070    1.1300   25.2650 C   0  0  0  0  0  0  0  0  0  1  0  0
   14.8530    0.3390   26.5110 C   0  0  0  0  0  0  0  0  0  0  0  0
   13.1030    2.1650   22.7180 C   0  0  0  0  0  0  0  0  0 34  0  0
   18.7890   -1.5200   12.0300 C   0  0  2  0  0  0  0  0  0 18  0  0
   18.1520   -0.7640   13.1270 C   0  0  0  0  0  0  0  0  0 35  0  0
   18.9070   -3.0330   12.1770 C   0  0  1  0  0  0  0  0  0 16  0  0
   19.1530    0.8440   14.7930 C   0  0  0  0  0  0  0  0  0 23  0  0
   18.2910   -4.1950   15.0430 N   0  0  0  0  0  0  0  0  0 13  0  0
   20.0150   -0.8100   11.8430 N   0  0  0  0  0  0  0  0  0 19  0  0
   19.4730   -2.8000   16.3540 O   0  0  0  0  0  0  0  0  0 12  0  0
   17.0450   -1.0230   13.5600 O   0  0  0  0  0  0  0  0  0 36  0  0
   14.3970    2.5530   19.3470 O   0  0  0  0  0  0  0  0  0 30  0  0
   19.3240   -3.6350   10.9490 O   0  0  0  0  0  0  0  0  0 17  0  0
   20.1100    1.6850   15.0770 O   0  0  0  0  0  0  0  0  0 24  0  0
   21.2250    0.9730   12.5790 O   0  0  0  0  0  0  0  0  0 21  0  0
  2  3  1  1
  5  4  1  0
  6  5  2  3
  7  6  1  1
  8  7  1  6
  9  8  1  0
 10  9  1  0
  1 11  1  0
 10 12  1  6
 13 12  1  1
 14 13  1  0
 14  8  1  0
 14 15  1  6
 16 15  2  3
  9 17  1  1
 18 17  1  6
 19 10  1  6
 19 18  1  0
 20 18  1  0
 20 21  1  6
 22 19  1  0
 22 21  1  0
 21 23  1  1
 23 24  1  1
 22 25  1  6
 27 26  1  0
 27  1  1  0
 28 26  1  0
 28  2  1  0
 29 16  1  0
 29  1  2  3
 30  4  1  0
  3 30  1  1
 26 31  1  1
 31 11  1  0
 32  4  2  0
 33 27  2  0
 34 12  2  0
 28 35  1  6
 29 36  1  0
 37 11  2  0
M  END
$$$$
