
     RDKit          3D

 17 19  0  0  0  0  0  0  0  0999 V2000
   -5.6610   31.1370   21.9540 C   0  0  0  0  0  0  0  0  0  9  0  0
   -4.5740   32.1490   21.8400 N   0  0  0  0  0  0  0  0  0  8  0  0
   -7.2040   32.2500   25.4850 S   0  0  0  0  0  0  0  0  0 12  0  0
   -2.1550   31.6710   19.4560 Cl  0  0  0  0  0  0  0  0  0  0  0  0
   -4.9970   33.4660   22.4040 C   0  0  0  0  0  0  0  0  0 16  0  0
   -6.0310   30.8250   23.4170 C   0  0  0  0  0  0  0  0  0 10  0  0
   -5.8330   33.3100   23.6140 C   0  0  0  0  0  0  0  0  0 15  0  0
   -6.2900   32.1080   24.0760 C   0  0  0  0  0  0  0  0  0 11  0  0
   -3.2580   31.6260   22.3190 C   0  0  0  0  0  0  0  0  0  7  0  0
   -2.9090   30.2950   21.7170 C   0  0  0  0  0  0  0  0  0  6  0  0
   -6.2430   34.3950   24.4520 C   0  0  0  0  0  0  0  0  0 14  0  0
   -6.9900   33.9410   25.4940 C   0  0  0  0  0  0  0  0  0 13  0  0
   -2.3970   30.2390   20.4230 C   0  0  0  0  0  0  0  0  0  1  0  0
   -3.0780   29.0870   22.4040 C   0  0  0  0  0  0  0  0  0  5  0  0
   -2.0530   29.0420   19.8100 C   0  0  0  0  0  0  0  0  0  2  0  0
   -2.7400   27.8820   21.7990 C   0  0  0  0  0  0  0  0  0  4  0  0
   -2.2280   27.8530   20.5070 C   0  0  0  0  0  0  0  0  0  3  0  0
  2  1  1  0
  5  2  1  0
  6  1  1  0
  7  5  1  0
  8  6  1  0
  8  3  1  0
  8  7  2  0
  9  2  1  0
 10  9  1  0
 11  7  1  0
 12  3  1  0
 12 11  2  0
 13 10  2  0
 13  4  1  0
 14 10  1  0
 15 13  1  0
 16 14  2  0
 17 16  1  0
 17 15  2  0
M  END
$$$$
