
     RDKit          3D

 28 29  0  0  0  0  0  0  0  0999 V2000
   30.6200   -5.0280    6.3530 Cl  0  0  0  0  0  0  0  0  0 27  0  0
   31.8430   -3.9850    5.6980 C   0  0  0  0  0  0  0  0  0 26  0  0
   31.4260   -2.7320    5.2440 C   0  0  0  0  0  0  0  0  0 25  0  0
   32.3430   -1.8370    4.7110 C   0  0  0  0  0  0  0  0  0 24  0  0
   33.6830   -2.1880    4.6300 C   0  0  0  0  0  0  0  0  0 23  0  0
   34.1060   -3.4340    5.0800 C   0  0  0  0  0  0  0  0  0 22  0  0
   33.2020   -4.3670    5.6230 C   0  0  0  0  0  0  0  0  0 21  0  0
   34.1420   -5.4360    5.8400 C   0  0  1  0  0  0  0  0  0 20  0  0
   34.6380   -5.6110    7.2210 C   0  0  0  0  0  0  0  0  0  5  0  0
   34.0290   -5.1080    8.3590 C   0  0  0  0  0  0  0  0  0  3  0  0
   34.6230   -5.1910    9.3930 O   0  0  0  0  0  0  0  0  0  4  0  0
   32.7890   -4.6990    8.3240 O   0  0  0  0  0  0  0  0  0  2  0  0
   32.5440   -4.1640    9.5330 C   0  0  0  0  0  0  0  0  0  1  0  0
   32.4240   -2.6590    9.3930 C   0  0  0  0  0  0  0  0  0  0  0  0
   34.3330   -6.5300    4.9770 C   0  0  0  0  0  0  0  0  0 15  0  0
   33.4070   -7.0440    3.9250 C   0  0  0  0  0  0  0  0  0 16  0  0
   32.2580   -6.6530    3.8960 O   0  0  0  0  0  0  0  0  0 17  0  0
   33.8000   -7.9900    3.0920 O   0  0  0  0  0  0  0  0  0 18  0  0
   32.6370   -8.5100    2.5990 C   0  0  0  0  0  0  0  0  0 19  0  0
   35.6400   -6.9460    5.0500 C   0  0  0  0  0  0  0  0  0 13  0  0
   36.0960   -7.8170    4.0870 C   0  0  0  0  0  0  0  0  0 14  0  0
   36.4950   -6.6800    6.1560 N   0  0  0  0  0  0  0  0  0 12  0  0
   35.9470   -6.0120    7.1300 C   0  0  0  0  0  0  0  0  0  6  0  0
   36.8070   -6.0480    8.3190 C   0  0  0  0  0  0  0  0  0  7  0  0
   38.0300   -6.4480    8.0400 O   0  0  0  0  0  0  0  0  0  8  0  0
   38.7790   -5.5370    7.2130 C   0  0  0  0  0  0  0  0  0  9  0  0
   40.0690   -5.3540    7.3290 C   0  0  0  0  0  0  0  0  0 10  0  0
   40.5260   -4.8760    8.6110 N   0  0  0  0  0  0  0  0  0 11  0  0
  2  1  1  0
  3  2  2  0
  4  3  1  0
  5  4  2  0
  6  5  1  0
  7  2  1  0
  7  6  2  0
  8  7  1  1
  9  8  1  0
  9 10  1  0
 10 11  2  0
 12 10  1  0
 13 12  1  0
 14 13  1  0
 15  8  1  0
 15 16  1  0
 16 17  2  0
 18 16  1  0
 19 18  1  0
 20 15  2  0
 20 21  1  0
 22 20  1  0
 23 22  1  0
 23  9  2  0
 23 24  1  0
 25 24  1  0
 26 25  1  0
 27 26  1  0
 28 27  1  0
M  END
$$$$
