
     RDKit          3D

 21 23  0  0  0  0  0  0  0  0999 V2000
  -21.9120   28.6060   -9.3020 C   0  0  0  0  0  0  0  0  0  2  0  0
  -22.3190   26.1400   -8.9980 N   0  0  0  0  0  0  0  0  0 12  0  0
  -22.9200   29.1600   -9.7080 O   0  0  0  0  0  0  0  0  0  3  0  0
  -23.1560   28.5640   -5.7700 Cl  0  0  0  0  0  0  0  0  0 11  0  0
  -22.0280   27.4460   -8.3420 C   0  0  1  0  0  0  0  0  0  4  0  0
  -20.5270   30.2900  -10.3940 C   0  0  0  0  0  0  0  0  0  0  0  0
  -19.4190   27.4470   -4.8850 C   0  0  0  0  0  0  0  0  0  8  0  0
  -18.9700   26.9490   -6.1020 C   0  0  0  0  0  0  0  0  0  7  0  0
  -25.3840   22.3110   -9.5400 C   0  0  0  0  0  0  0  0  0 17  0  0
  -20.7160   27.9400   -4.8120 C   0  0  0  0  0  0  0  0  0  9  0  0
  -19.8020   26.9450   -7.2160 C   0  0  0  0  0  0  0  0  0  6  0  0
  -25.1890   23.6400   -8.8880 C   0  0  0  0  0  0  0  0  0 18  0  0
  -21.5430   23.8580   -9.7880 C   0  0  0  0  0  0  0  0  0 14  0  0
  -21.1910   25.1740   -9.0940 C   0  0  0  0  0  0  0  0  0 13  0  0
  -23.4770   25.4770   -8.3370 C   0  0  0  0  0  0  0  0  0 20  0  0
  -20.7180   29.0270   -9.7080 O   0  0  0  0  0  0  0  0  0  1  0  0
  -23.6910   22.0230  -10.1230 S   0  0  0  0  0  0  0  0  0 16  0  0
  -21.5430   27.9330   -5.9290 C   0  0  0  0  0  0  0  0  0 10  0  0
  -23.8280   24.1600   -8.9890 C   0  0  0  0  0  0  0  0  0 19  0  0
  -22.9210   23.4770   -9.5540 C   0  0  0  0  0  0  0  0  0 15  0  0
  -21.1010   27.4360   -7.1500 C   0  0  0  0  0  0  0  0  0  5  0  0
  3  1  2  0
  5  2  1  6
  5  1  1  0
  8  7  2  0
 10  7  1  0
 11  8  1  0
 12  9  2  0
 14  2  1  0
 14 13  1  0
 15  2  1  0
 16  1  1  0
 16  6  1  0
 17  9  1  0
 18  4  1  0
 18 10  2  0
 19 15  1  0
 19 12  1  0
 20 19  2  0
 20 17  1  0
 20 13  1  0
 21  5  1  0
 21 11  2  0
 21 18  1  0
M  END
$$$$
