
     RDKit          3D

 23 25  0  0  0  0  0  0  0  0999 V2000
  -11.3430  -14.2150  -29.5170 C   0  0  0  0  0  0  0  0  0  2  0  0
  -10.2640  -15.1370  -29.6240 C   0  0  0  0  0  0  0  0  0  1  0  0
   -8.9390  -14.6240  -29.6390 C   0  0  0  0  0  0  0  0  0 22  0  0
   -8.7010  -13.2360  -29.5470 C   0  0  0  0  0  0  0  0  0 21  0  0
   -9.7840  -12.3300  -29.4400 C   0  0  0  0  0  0  0  0  0  4  0  0
  -11.1100  -12.8270  -29.4250 C   0  0  0  0  0  0  0  0  0  3  0  0
  -10.5220  -16.6200  -29.7170 C   0  0  0  0  0  0  0  0  0  0  0  0
   -9.4850  -10.5840  -29.3170 S   0  0  1  0  0  0  0  0  0  5  0  0
  -10.3000   -9.9990  -28.1690 O   0  0  0  0  0  0  0  0  0  6  0  0
   -7.9950  -10.2810  -29.1950 O   0  0  0  0  0  0  0  0  0  7  0  0
  -10.0780   -9.8950  -30.8190 N   0  0  0  0  0  0  0  0  0  8  0  0
  -11.4800  -10.1510  -31.2330 C   0  0  0  0  0  0  0  0  0  9  0  0
   -9.1630   -9.7340  -31.8950 C   0  0  0  0  0  0  0  0  0 10  0  0
   -8.1910  -10.5710  -32.4630 C   0  0  0  0  0  0  0  0  0 11  0  0
   -7.6030   -9.8060  -33.5320 C   0  0  0  0  0  0  0  0  0 12  0  0
   -8.1770   -8.5840  -33.6100 N   0  0  0  0  0  0  0  0  0 13  0  0
   -9.1090   -8.5180  -32.6440 N   0  0  0  0  0  0  0  0  0 14  0  0
   -9.8610   -7.2880  -32.5330 C   0  0  0  0  0  0  0  0  0 15  0  0
   -9.9330   -6.6130  -31.2810 C   0  0  0  0  0  0  0  0  0 16  0  0
  -10.6650   -5.4100  -31.1820 C   0  0  0  0  0  0  0  0  0 17  0  0
  -11.3240   -4.8720  -32.3110 C   0  0  0  0  0  0  0  0  0 18  0  0
  -11.2540   -5.5410  -33.5550 C   0  0  0  0  0  0  0  0  0 19  0  0
  -10.5250   -6.7460  -33.6730 C   0  0  0  0  0  0  0  0  0 20  0  0
  2  1  2  0
  3  2  1  0
  4  3  2  0
  5  4  1  0
  6  1  1  0
  6  5  2  0
  7  2  1  0
  8  5  1  0
  8  9  2  0
 10  8  2  0
  8 11  1  6
 12 11  1  0
 13 11  1  0
 14 13  2  0
 15 14  1  0
 16 15  2  0
 17 16  1  0
 17 13  1  0
 18 17  1  0
 19 18  2  0
 20 19  1  0
 21 20  2  0
 22 21  1  0
 23 22  2  0
 23 18  1  0
M  END
$$$$
