
     RDKit          3D

  6  5  0  0  0  0  0  0  0  0999 V2000
    6.3240    5.8550   11.0140 C   0  0  0  0  0  0  0  0  0  0  0  0
    6.0810    5.9300   12.0710 N   0  0  0  0  0  0  0  0  0  1  0  0
    6.7300    6.0160   13.4860 C   0  0  0  0  0  0  0  0  0  2  0  0
    7.7720    7.1250   13.5560 C   0  0  0  0  0  0  0  0  0  3  0  0
    7.1460    8.4590   13.6870 C   0  0  0  0  0  0  0  0  0  4  0  0
    8.2080    9.5310   13.6980 C   0  0  0  0  0  0  0  0  0  5  0  0
  2  1  3  0
  3  2  1  0
  4  3  1  0
  5  4  1  0
  6  5  1  0
M  CHG  2   1  -1   2   1
M  END
$$$$
