
     RDKit          3D

 35 39  0  0  0  0  0  0  0  0999 V2000
   16.5630    1.5220   18.9170 C   0  0  0  0  0  0  0  0  0 27  0  0
   14.0370    0.9750   24.7010 C   0  0  0  0  0  0  0  0  0  1  0  0
   18.0770   -1.9530   18.5980 C   0  0  0  0  0  0  0  0  0  8  0  0
   17.1220   -3.2990   16.6960 C   0  0  0  0  0  0  0  0  0 10  0  0
   16.9960   -2.6680   17.8490 C   0  0  0  0  0  0  0  0  0  9  0  0
   18.9480   -4.0830   12.6360 C   0  0  0  0  0  0  0  0  0 15  0  0
   18.1280    0.2350   15.8310 C   0  0  0  0  0  0  0  0  0 24  0  0
   17.6000   -0.5960   19.1440 C   0  0  1  0  0  0  0  0  0  7  0  0
   18.0680    0.7490   17.0390 C   0  0  0  0  0  0  0  0  0 25  0  0
   18.3850   -3.4950   15.9620 C   0  0  0  0  0  0  0  0  0 11  0  0
   19.4000   -4.6160   13.9810 C   0  0  0  0  0  0  0  0  0 14  0  0
   19.7180   -2.9000   12.0630 C   0  0  0  0  0  0  0  0  0 16  0  0
   19.0930    0.5590   14.8110 C   0  0  0  0  0  0  0  0  0 22  0  0
   20.1450    0.2330   12.5820 C   0  0  0  0  0  0  0  0  0 19  0  0
   19.1480   -0.0580   13.6200 C   0  0  0  0  0  0  0  0  0 21  0  0
   18.8900   -1.6210   11.8650 C   0  0  1  0  0  0  0  0  0 17  0  0
   18.3260   -4.2950   14.8650 N   0  0  0  0  0  0  0  0  0 13  0  0
   14.9220    1.5380   23.5830 C   0  0  2  0  0  0  0  0  0  2  0  0
   17.0470    0.3580   18.0530 C   0  0  2  0  0  0  0  0  0 26  0  0
   14.5010    1.3300   26.0990 C   0  0  0  0  0  0  0  0  0  0  0  0
   12.8320    2.9850   23.0670 C   0  0  0  0  0  0  0  0  0 32  0  0
   14.3320    2.7810   22.8860 C   0  0  2  0  0  0  0  0  0 31  0  0
   14.7110    2.6360   21.4030 C   0  0  0  0  0  0  0  0  0 30  0  0
   18.2370   -1.0420   13.1070 C   0  0  0  0  0  0  0  0  0 33  0  0
   15.6900    1.4800   21.2940 C   0  0  1  0  0  0  0  0  0 29  0  0
   15.1390    0.5680   22.4010 C   0  0  1  0  0  0  0  0  0  3  0  0
   15.7320    0.7470   19.9460 C   0  0  2  0  0  0  0  0  0 28  0  0
   16.3680   -0.6680   20.0820 C   0  0  2  0  0  0  0  0  0  6  0  0
   16.5810   -1.1370   21.4930 C   0  0  0  0  0  0  0  0  0  5  0  0
   16.0300   -0.6170   22.5810 C   0  0  0  0  0  0  0  0  0  4  0  0
   19.9060   -0.6250   11.5720 N   0  0  0  0  0  0  0  0  0 18  0  0
   19.4470   -3.0140   16.3020 O   0  0  0  0  0  0  0  0  0 12  0  0
   19.9920    1.5110   15.1110 O   0  0  0  0  0  0  0  0  0 23  0  0
   21.0610    1.0540   12.6320 O   0  0  0  0  0  0  0  0  0 20  0  0
   17.1200   -1.3630   13.4810 O   0  0  0  0  0  0  0  0  0 34  0  0
  5  4  2  3
  3  5  1  1
  8  3  1  6
  9  7  2  3
 10  4  1  0
  6 11  1  1
 12  6  1  0
 13  7  1  0
 15 14  1  0
 15 13  2  3
 12 16  1  6
 11 17  1  1
 17 10  1  0
 18  2  1  1
 19  9  1  6
 19  8  1  0
  1 19  1  6
  2 20  1  6
 22 21  1  6
 22 18  1  0
 23 22  1  6
 24 16  1  0
 24 15  1  0
 25 23  1  6
 26 25  1  0
 26 18  1  0
 27 25  1  0
 27  1  1  6
 28 27  1  0
 28  8  1  0
 28 29  1  1
 26 30  1  1
 30 29  2  0
 16 31  1  1
 31 14  1  0
 32 10  2  0
 33 13  1  0
 34 14  2  0
 24 35  2  0
M  END
$$$$
