
     RDKit          3D

 11 12  0  0  0  0  0  0  0  0999 V2000
   12.4200   17.9570   18.6980 C   0  0  2  0  0  0  0  0  0  6  0  0
   12.3530   17.9040   17.2230 C   0  0  0  0  0  0  0  0  0  8  0  0
   11.2830   18.0830   16.5080 O   0  0  0  0  0  0  0  0  0  9  0  0
   13.7140   17.6210   16.6780 C   0  0  0  0  0  0  0  0  0 10  0  0
   14.4730   17.6580   17.9550 C   0  0  1  0  0  0  0  0  0  3  0  0
   14.4570   19.0950   18.4070 C   0  0  0  0  0  0  0  0  0  4  0  0
   13.0550   19.3030   18.9080 C   0  0  0  0  0  0  0  0  0  5  0  0
   13.5580   16.9900   18.9500 C   0  0  2  0  0  0  0  0  0  1  0  0
   13.2170   15.5820   18.5650 C   0  0  0  0  0  0  0  0  0  0  0  0
   14.0930   16.9840   20.3430 C   0  0  0  0  0  0  0  0  0  2  0  0
   11.1230   17.7410   19.4050 C   0  0  0  0  0  0  0  0  0  7  0  0
  2  1  1  0
  3  2  2  0
  4  2  1  0
  5  4  1  6
  6  5  1  0
  7  6  1  0
  7  1  1  0
  8  5  1  0
  8  1  1  0
  8  9  1  6
 10  8  1  0
  1 11  1  1
M  END
$$$$
