
     RDKit          3D

 36 41  0  0  0  0  0  0  0  0999 V2000
   17.5560   -0.6150   19.1500 C   0  0  2  0  0  0  0  0  0 29  0  0
   14.2820    1.0790   24.9040 C   0  0  0  0  0  0  0  0  0  1  0  0
   14.6260    1.7650   26.2130 C   0  0  0  0  0  0  0  0  0  0  0  0
   17.9230    0.8590   17.1050 C   0  0  0  0  0  0  0  0  0 11  0  0
   18.4300   -3.5540   15.9120 C   0  0  0  0  0  0  0  0  0 24  0  0
   17.1270   -3.2620   16.5490 C   0  0  0  0  0  0  0  0  0 26  0  0
   19.9720   -3.4200   13.1020 C   0  0  0  0  0  0  0  0  0 21  0  0
   19.5190   -4.5670   13.9670 C   0  0  0  0  0  0  0  0  0 22  0  0
   14.9910    1.6380   23.6650 C   0  0  2  0  0  0  0  0  0  2  0  0
   14.2960    2.7760   22.8950 C   0  0  1  0  0  0  0  0  0  6  0  0
   14.6510    2.5560   21.4110 C   0  0  0  0  0  0  0  0  0  5  0  0
   15.6590    1.4270   21.4330 C   0  0  1  0  0  0  0  0  0  4  0  0
   15.2080    0.5530   22.6110 C   0  0  1  0  0  0  0  0  0  3  0  0
   15.7190    0.6590   20.1070 C   0  0  2  0  0  0  0  0  0  8  0  0
   16.4470   -0.6970   20.2100 C   0  0  2  0  0  0  0  0  0 30  0  0
   16.9470    0.3630   18.1210 C   0  0  2  0  0  0  0  0  0 10  0  0
   16.2670   -0.4640   22.7590 C   0  0  2  0  0  0  0  0  0 33  0  0
   18.9540   -3.1180   12.0140 C   0  0  0  0  0  0  0  0  0 20  0  0
   16.8490   -1.0210   21.5790 C   0  0  1  0  0  0  0  0  0 31  0  0
   16.4730    1.4660   19.0540 C   0  0  0  0  0  0  0  0  0  9  0  0
   12.7970    2.9240   23.1210 C   0  0  0  0  0  0  0  0  0  7  0  0
   17.9770   -1.9690   18.5670 C   0  0  0  0  0  0  0  0  0 28  0  0
   19.5250   -3.1400   16.3450 O   0  0  0  0  0  0  0  0  0 25  0  0
   16.9360   -2.5900   17.6840 C   0  0  0  0  0  0  0  0  0 27  0  0
   18.3460   -4.2600   14.7810 N   0  0  0  0  0  0  0  0  0 23  0  0
   19.8590    1.5740   15.0790 O   0  0  0  0  0  0  0  0  0 14  0  0
   18.9580    0.6470   14.8310 C   0  0  0  0  0  0  0  0  0 13  0  0
   18.0280    0.3450   15.9000 C   0  0  0  0  0  0  0  0  0 12  0  0
   20.1050    0.1210   12.6610 C   0  0  0  0  0  0  0  0  0 16  0  0
   18.9920   -0.0160   13.6220 C   0  0  0  0  0  0  0  0  0 15  0  0
   19.9050   -0.8220   11.7260 N   0  0  0  0  0  0  0  0  0 18  0  0
   18.7070   -1.6140   11.8660 C   0  0  2  0  0  0  0  0  0 19  0  0
   18.0730   -0.9950   13.1160 C   0  0  0  0  0  0  0  0  0 34  0  0
   21.0440    0.9220   12.7020 O   0  0  0  0  0  0  0  0  0 17  0  0
   16.9980   -1.3440   13.5630 O   0  0  0  0  0  0  0  0  0 35  0  0
   15.9670   -1.7900   22.3580 O   0  0  0  0  0  0  0  0  0 32  0  0
  2  3  1  6
  6  5  1  0
  7  8  1  6
  9  2  1  1
 10  9  1  0
 11 10  1  6
 12 11  1  6
 13 12  1  0
 13  9  1  0
 14 12  1  0
 15 14  1  0
 15  1  1  0
 16  4  1  6
 16  1  1  0
 13 17  1  1
 18  7  1  0
 19 17  1  0
 15 19  1  1
 14 20  1  6
 20 16  1  1
 10 21  1  6
  1 22  1  6
 23  5  2  0
 22 24  1  1
 24  6  2  3
  8 25  1  6
 25  5  1  0
 27 26  1  0
 28 27  1  0
 28  4  2  3
 30 29  1  0
 30 27  2  3
 31 29  1  0
 32 31  1  1
 18 32  1  1
 33 32  1  0
 33 30  1  0
 34 29  2  0
 35 33  2  0
 17 36  1  6
 19 36  1  1
M  END
$$$$
