
     RDKit          3D

 11 13  0  0  0  0  0  0  0  0999 V2000
   46.4610   44.9700   15.3710 C   0  0  1  0  0  0  0  0  0  2  0  0
   45.0150   44.7760   14.8050 C   0  0  0  0  0  0  0  0  0  1  0  0
   45.0250   44.2900   13.3020 C   0  0  1  0  0  0  0  0  0  9  0  0
   45.8530   45.3610   12.4280 C   0  0  0  0  0  0  0  0  0  8  0  0
   47.2870   45.5450   12.9900 C   0  0  2  0  0  0  0  0  0  6  0  0
   48.0410   44.1310   12.8760 C   0  0  0  0  0  0  0  0  0  5  0  0
   47.2400   43.0910   13.7520 C   0  0  1  0  0  0  0  0  0  4  0  0
   47.2190   43.5230   15.2620 C   0  0  0  0  0  0  0  0  0  3  0  0
   47.2030   45.9790   14.5080 C   0  0  0  0  0  0  0  0  0  7  0  0
   45.7160   42.9290   13.3000 C   0  0  0  0  0  0  0  0  0 10  0  0
   43.9840   44.8270   15.4210 O   0  0  0  0  0  0  0  0  0  0  0  0
  2  1  1  0
  3  2  1  0
  3  4  1  6
  5  4  1  1
  5  6  1  0
  7  6  1  6
  8  7  1  0
  1  8  1  6
  9  5  1  0
  9  1  1  0
 10  7  1  0
 10  3  1  0
  2 11  2  0
M  END
$$$$
