
     RDKit          3D

 29 31  0  0  0  0  0  0  0  0999 V2000
  -20.5490  -39.8360   31.7370 C   0  0  0  0  0  0  0  0  0  0  0  0
  -19.5790  -39.7870   31.0860 C   0  0  0  0  0  0  0  0  0  1  0  0
  -18.4050  -39.7250   30.3020 C   0  0  0  0  0  0  0  0  0  2  0  0
  -17.8410  -38.4740   30.1570 C   0  0  0  0  0  0  0  0  0 28  0  0
  -16.6940  -38.3320   29.3860 C   0  0  0  0  0  0  0  0  0  6  0  0
  -16.0650  -37.0300   29.2360 N   0  0  0  0  0  0  0  0  0  7  0  0
  -15.2320  -36.6980   28.1410 C   0  0  0  0  0  0  0  0  0  8  0  0
  -14.8240  -35.3440   28.0090 C   0  0  0  0  0  0  0  0  0 27  0  0
  -15.2130  -34.3200   28.9030 C   0  0  0  0  0  0  0  0  0 26  0  0
  -14.7770  -33.0360   28.7080 C   0  0  0  0  0  0  0  0  0 20  0  0
  -15.1100  -31.9720   29.5170 O   0  0  0  0  0  0  0  0  0 21  0  0
  -15.6940  -32.3450   30.7660 C   0  0  0  0  0  0  0  0  0 22  0  0
  -15.9220  -31.0050   31.5190 C   0  0  0  0  0  0  0  0  0 23  0  0
  -17.2790  -30.9490   32.0110 O   0  0  0  0  0  0  0  0  0 24  0  0
  -17.7630  -29.6200   31.7890 C   0  0  0  0  0  0  0  0  0 25  0  0
  -13.9380  -32.7240   27.6050 C   0  0  0  0  0  0  0  0  0 14  0  0
  -13.5710  -31.4390   27.4810 O   0  0  0  0  0  0  0  0  0 15  0  0
  -13.4820  -31.0430   26.1120 C   0  0  0  0  0  0  0  0  0 16  0  0
  -13.9640  -29.5830   26.2010 C   0  0  0  0  0  0  0  0  0 17  0  0
  -14.7610  -29.2690   25.1040 O   0  0  0  0  0  0  0  0  0 18  0  0
  -15.7190  -28.2540   25.5290 C   0  0  0  0  0  0  0  0  0 19  0  0
  -13.5670  -33.7220   26.7440 C   0  0  0  0  0  0  0  0  0 13  0  0
  -14.0000  -35.0270   26.9290 C   0  0  0  0  0  0  0  0  0 12  0  0
  -13.5710  -35.9720   26.0010 N   0  0  0  0  0  0  0  0  0 11  0  0
  -14.0090  -37.2030   26.2330 C   0  0  0  0  0  0  0  0  0 10  0  0
  -14.8210  -37.6400   27.2550 N   0  0  0  0  0  0  0  0  0  9  0  0
  -16.1020  -39.4570   28.7960 C   0  0  0  0  0  0  0  0  0  5  0  0
  -16.6870  -40.7090   28.9570 C   0  0  0  0  0  0  0  0  0  4  0  0
  -17.8390  -40.8480   29.7110 C   0  0  0  0  0  0  0  0  0  3  0  0
  2  1  3  0
  3  2  1  0
  4  3  2  0
  5  4  1  0
  5  6  1  0
  7  6  1  0
  8  7  1  0
  9  8  2  0
 10  9  1  0
 11 10  1  0
 12 11  1  6
 13 12  1  0
 13 14  1  1
 15 14  1  6
 16 10  2  0
 17 16  1  0
 18 17  1  1
 19 18  1  0
 19 20  1  6
 21 20  1  1
 22 16  1  0
 23 22  2  0
 23  8  1  0
 24 23  1  0
 25 24  2  0
 26 25  1  0
 26  7  2  0
 27  5  2  0
 28 27  1  0
 29 28  2  0
 29  3  1  0
M  END
$$$$
