
     RDKit          3D

 30 33  0  0  0  0  0  0  0  0999 V2000
  -36.9620   -9.1840   56.3260 C   0  0  0  0  0  0  0  0  0 22  0  0
  -39.2690  -12.1190   56.8370 O   0  0  0  0  0  0  0  0  0 20  0  0
  -37.8000  -10.4080   55.9690 C   0  0  0  0  0  0  0  0  0 21  0  0
  -34.8960   -1.1490   57.4470 O   0  0  0  0  0  0  0  0  0  9  0  0
  -38.5280  -10.9440   57.1930 C   0  0  1  0  0  0  0  0  0 19  0  0
  -32.9170   -0.1740   58.6460 O   0  0  0  0  0  0  0  0  0  6  0  0
  -39.4760   -9.8710   57.7220 C   0  0  0  0  0  0  0  0  0 18  0  0
  -38.7370   -8.5640   57.9400 C   0  0  0  0  0  0  0  0  0 17  0  0
  -38.9570   -7.9100   59.0990 C   0  0  0  0  0  0  0  0  0 16  0  0
  -38.2620   -6.6350   59.5160 C   0  0  0  0  0  0  0  0  0 15  0  0
  -37.5480   -5.9550   58.3470 C   0  0  2  0  0  0  0  0  0 14  0  0
  -36.8690   -6.9700   57.4120 C   0  0  1  0  0  0  0  0  0 25  0  0
  -37.8230   -8.0340   56.8560 C   0  0  1  0  0  0  0  0  0 23  0  0
  -36.0760   -6.2650   56.2960 C   0  0  0  0  0  0  0  0  0 26  0  0
  -35.0930   -5.2360   56.8630 C   0  0  0  0  0  0  0  0  0 27  0  0
  -35.8080   -4.1980   57.7310 C   0  0  1  0  0  0  0  0  0 28  0  0
  -36.4970   -4.9650   58.8390 C   0  0  1  0  0  0  0  0  0 13  0  0
  -36.9290   -3.9060   59.8440 C   0  0  0  0  0  0  0  0  0 12  0  0
  -35.7820   -2.9020   59.7940 C   0  0  0  0  0  0  0  0  0 11  0  0
  -34.8920   -3.3450   58.6260 C   0  0  2  0  0  0  0  0  0 10  0  0
  -36.7900   -3.3600   56.8930 C   0  0  0  0  0  0  0  0  0 29  0  0
  -38.7270   -7.4590   55.7480 C   0  0  0  0  0  0  0  0  0 24  0  0
  -34.0690   -2.1830   58.0200 C   0  0  1  0  0  0  0  0  0  7  0  0
  -33.0900   -2.6630   56.9480 C   0  0  0  0  0  0  0  0  0  8  0  0
  -33.3200   -1.4680   59.1440 C   0  0  1  0  0  0  0  0  0  5  0  0
  -32.1380   -2.2710   59.6810 C   0  0  0  0  0  0  0  0  0  4  0  0
  -31.5840   -1.6680   60.9650 C   0  0  0  0  0  0  0  0  0  3  0  0
  -30.6620   -2.6350   61.7080 C   0  0  2  0  0  0  0  0  0  1  0  0
  -30.2950   -2.0530   63.0670 C   0  0  0  0  0  0  0  0  0  0  0  0
  -29.4070   -2.9310   60.8930 C   0  0  0  0  0  0  0  0  0  2  0  0
  3  1  1  0
  5  2  1  6
  5  3  1  0
  7  5  1  0
  8  7  1  0
  9  8  2  0
 10  9  1  0
 11 10  1  1
 12 11  1  0
 13  8  1  0
 13 12  1  0
 13  1  1  0
 12 14  1  6
 15 14  1  0
 16 15  1  0
 17 11  1  0
 17 16  1  0
 17 18  1  1
 19 18  1  0
 20 19  1  1
 20 16  1  0
 16 21  1  6
 13 22  1  6
 23 20  1  0
 23  4  1  0
 23 24  1  6
 25 23  1  0
 25  6  1  6
 26 25  1  0
 27 26  1  0
 28 27  1  0
 28 29  1  1
 30 28  1  0
M  END
$$$$
