
     RDKit          3D

 15 15  0  0  0  0  0  0  0  0999 V2000
   -4.4450    3.9210   12.8380 C   0  0  0  0  0  0  0  0  0  9  0  0
   -3.7650    4.7870   13.8900 C   0  0  0  0  0  0  0  0  0  8  0  0
   -3.9130    4.4290   15.3480 C   0  0  0  0  0  0  0  0  0  7  0  0
   -4.7820    5.4490   16.0780 C   0  0  0  0  0  0  0  0  0  6  0  0
   -4.1550    6.0750   17.3180 C   0  0  0  0  0  0  0  0  0  5  0  0
   -5.1690    6.8930   18.0970 C   0  0  0  0  0  0  0  0  0  4  0  0
   -4.5010    7.9620   18.9310 C   0  0  0  0  0  0  0  0  0  3  0  0
   -5.5540    8.8580   19.5270 C   0  0  0  0  0  0  0  0  0  1  0  0
   -6.4720    8.3470   20.1590 O   0  0  0  0  0  0  0  0  0  0  0  0
   -5.4690   10.0810   19.3850 O   0  0  0  0  0  0  0  0  0  2  0  0
   -4.3650    4.6800   11.5890 N   0  0  0  0  0  0  0  0  0 10  0  0
   -5.3640    5.1630   10.8980 C   0  0  0  0  0  0  0  0  0 11  0  0
   -4.8180    5.8070    9.8370 C   0  0  0  0  0  0  0  0  0 12  0  0
   -3.5040    5.6950    9.8940 N   0  0  0  0  0  0  0  0  0 13  0  0
   -3.2400    5.0010   10.9880 C   0  0  0  0  0  0  0  0  0 14  0  0
  2  1  1  0
  3  2  1  0
  4  3  1  0
  5  4  1  0
  6  5  1  0
  7  6  1  0
  8  7  1  0
  9  8  2  0
 10  8  1  0
 11  1  1  0
 12 11  1  0
 13 12  2  0
 14 13  1  0
 15 11  1  0
 15 14  2  0
M  END
$$$$
