
     RDKit          3D

 23 26  0  0  0  0  0  0  0  0999 V2000
   -7.1040    6.6760   31.3640 C   0  0  0  0  0  0  0  0  0 15  0  0
   -5.6720    6.3060   31.7700 C   0  0  0  0  0  0  0  0  0 14  0  0
   -4.7290    7.4430   31.4440 C   0  0  0  0  0  0  0  0  0 12  0  0
   -3.5590    7.2210   31.1810 O   0  0  0  0  0  0  0  0  0 13  0  0
   -5.2260    8.8340   31.4490 C   0  0  0  0  0  0  0  0  0 11  0  0
   -6.5230    9.1370   31.6470 C   0  0  0  0  0  0  0  0  0 10  0  0
   -6.8690   10.6180   31.6890 C   0  0  0  0  0  0  0  0  0  9  0  0
   -8.0670   10.8940   30.7780 C   0  0  0  0  0  0  0  0  0  8  0  0
   -9.2350    9.9630   31.1200 C   0  0  2  0  0  0  0  0  0  7  0  0
   -8.8230    8.4730   30.9320 C   0  0  1  0  0  0  0  0  0 18  0  0
   -7.6070    8.0650   31.8120 C   0  0  1  0  0  0  0  0  0 16  0  0
  -10.0170    7.4780   30.9740 C   0  0  0  0  0  0  0  0  0 19  0  0
  -11.3130    7.9290   30.2740 C   0  0  0  0  0  0  0  0  0 20  0  0
  -11.7130    9.3650   30.6190 C   0  0  1  0  0  0  0  0  0 21  0  0
  -10.5120   10.2700   30.3170 C   0  0  1  0  0  0  0  0  0  6  0  0
  -11.0390   11.7020   30.2570 C   0  0  0  0  0  0  0  0  0  5  0  0
  -12.4480   11.5210   29.7030 C   0  0  0  0  0  0  0  0  0  4  0  0
  -12.7280   10.0040   29.6660 C   0  0  2  0  0  0  0  0  0  3  0  0
  -12.2230    9.4130   32.0810 C   0  0  0  0  0  0  0  0  0 22  0  0
   -7.9750    7.9980   33.3080 C   0  0  0  0  0  0  0  0  0 17  0  0
  -14.1880    9.6280   29.8640 C   0  0  0  0  0  0  0  0  0  1  0  0
  -14.5250    8.4530   29.7780 O   0  0  0  0  0  0  0  0  0  2  0  0
  -15.2300   10.6720   30.1300 C   0  0  0  0  0  0  0  0  0  0  0  0
  2  1  1  0
  3  2  1  0
  4  3  2  0
  5  3  1  0
  6  5  2  0
  7  6  1  0
  8  7  1  0
  9  8  1  6
 10  9  1  0
 11 10  1  0
 11  6  1  0
 11  1  1  0
 10 12  1  1
 13 12  1  0
 14 13  1  0
 15 14  1  0
 15  9  1  0
 15 16  1  1
 17 16  1  0
 18 14  1  0
 18 17  1  0
 14 19  1  1
 11 20  1  1
 18 21  1  1
 22 21  2  0
 23 21  1  0
M  END
$$$$
