
     RDKit          3D

 11 11  0  0  0  0  0  0  0  0999 V2000
   43.4610   80.7570   37.6740 C   0  0  0  0  0  0  0  0  0  4  0  0
   42.9390   80.4630   38.9260 C   0  0  0  0  0  0  0  0  0  3  0  0
   42.7360   79.1320   39.2740 C   0  0  0  0  0  0  0  0  0  2  0  0
   43.0430   78.1180   38.4020 C   0  0  0  0  0  0  0  0  0  9  0  0
   43.5720   78.3840   37.1340 C   0  0  0  0  0  0  0  0  0  8  0  0
   44.1490   82.5290   36.3430 O   0  0  0  0  0  0  0  0  0  6  0  0
   43.7740   79.7240   36.7770 C   0  0  0  0  0  0  0  0  0  7  0  0
   43.6550   82.2230   37.3440 C   0  0  0  0  0  0  0  0  0  5  0  0
   41.6820   79.8610   41.3850 C   0  0  0  0  0  0  0  0  0  0  0  0
   42.2050   78.7470   40.5900 O   0  0  0  0  0  0  0  0  0  1  0  0
   42.7790   76.8090   38.9060 O   0  0  0  0  0  0  0  0  0 10  0  0
  2  1  2  0
  3  2  1  0
  4  3  2  0
  5  4  1  0
  7  5  2  0
  7  1  1  0
  8  1  1  0
  8  6  2  0
 10  9  1  0
 10  3  1  0
 11  4  1  0
M  END
$$$$
