
     RDKit          3D

 11 11  0  0  0  0  0  0  0  0999 V2000
    9.2460  -26.5560  -19.4430 C   0  0  0  0  0  0  0  0  0  9  0  0
   10.8990  -27.5140  -16.3640 C   0  0  0  0  0  0  0  0  0  0  0  0
    9.6590  -27.3910  -18.4310 C   0  0  0  0  0  0  0  0  0  2  0  0
    9.6020  -28.7890  -18.6230 C   0  0  0  0  0  0  0  0  0  3  0  0
    9.1110  -29.2950  -19.8330 C   0  0  0  0  0  0  0  0  0  4  0  0
    8.6750  -28.4460  -20.8450 C   0  0  0  0  0  0  0  0  0  5  0  0
    8.7820  -27.0490  -20.6360 C   0  0  0  0  0  0  0  0  0  6  0  0
    8.3740  -25.9890  -21.6430 C   0  0  0  0  0  0  0  0  0  7  0  0
   10.1260  -26.7630  -17.2910 O   0  0  0  0  0  0  0  0  0  1  0  0
    7.9120  -26.6230  -22.8170 O   0  0  0  0  0  0  0  0  0  8  0  0
    9.3480  -25.1750  -19.2240 O   0  0  0  0  0  0  0  0  0 10  0  0
  3  1  2  0
  4  3  1  0
  5  4  2  0
  6  5  1  0
  7  6  2  0
  7  1  1  0
  8  7  1  0
  9  3  1  0
  2  9  1  1
  8 10  1  1
 11  1  1  0
M  END
$$$$
