
     RDKit          3D

 25 27  0  0  0  0  0  0  0  0999 V2000
   22.7490   12.6920   14.2180 F   0  0  0  0  0  0  0  0  0 24  0  0
   19.5840   12.7100   16.7430 F   0  0  0  0  0  0  0  0  0  8  0  0
   26.6160   11.0630   12.1930 F   0  0  0  0  0  0  0  0  0 21  0  0
   23.1610    9.6360   17.1930 O   0  0  0  0  0  0  0  0  0 10  0  0
   24.1930   12.3170   17.5080 N   0  0  0  0  0  0  0  0  0 12  0  0
   20.3100    9.3210   17.6630 N   0  0  0  0  0  0  0  0  0  3  0  0
   24.7560   13.4330   16.9620 N   0  0  0  0  0  0  0  0  0 16  0  0
   26.2200   12.3630   18.2790 N   0  0  0  0  0  0  0  0  0 14  0  0
   18.6420   10.1890   19.1090 N   0  0  0  0  0  0  0  0  0  5  0  0
   22.7760   10.7080   16.3350 C   0  0  1  0  0  0  0  0  0  9  0  0
   21.3350   10.5430   15.8420 C   0  0  1  0  0  0  0  0  0  1  0  0
   22.8220   11.9770   17.1970 C   0  0  0  0  0  0  0  0  0 11  0  0
   23.7960   10.8130   15.1960 C   0  0  0  0  0  0  0  0  0 17  0  0
   21.2100    9.2850   14.9660 C   0  0  0  0  0  0  0  0  0  0  0  0
   20.3570   10.4860   17.0040 C   0  0  0  0  0  0  0  0  0  2  0  0
   23.7570   11.7850   14.2100 C   0  0  0  0  0  0  0  0  0 23  0  0
   24.8680    9.9280   15.1350 C   0  0  0  0  0  0  0  0  0 18  0  0
   19.5430   11.5290   17.3850 C   0  0  0  0  0  0  0  0  0  7  0  0
   24.6870   11.9110   13.2040 C   0  0  0  0  0  0  0  0  0 22  0  0
   25.8230   10.0090   14.1310 C   0  0  0  0  0  0  0  0  0 19  0  0
   25.0930   11.6800   18.2920 C   0  0  0  0  0  0  0  0  0 13  0  0
   25.6950   10.9880   13.1880 C   0  0  0  0  0  0  0  0  0 20  0  0
   18.6900   11.3470   18.4520 C   0  0  0  0  0  0  0  0  0  6  0  0
   19.4510    9.2350   18.6740 C   0  0  0  0  0  0  0  0  0  4  0  0
   25.9620   13.4180   17.4770 C   0  0  0  0  0  0  0  0  0 15  0  0
  7  5  1  0
 10  4  1  1
 11 10  1  0
 12 10  1  0
 12  5  1  0
 13 10  1  0
 11 14  1  1
 15 11  1  0
 15  6  2  0
 16 13  2  0
 16  1  1  0
 17 13  1  0
 18 15  1  0
 18  2  1  0
 19 16  1  0
 20 17  2  0
 21  8  2  0
 21  5  1  0
 22 20  1  0
 22 19  2  0
 22  3  1  0
 23  9  1  0
 23 18  2  0
 24  9  2  0
 24  6  1  0
 25  8  1  0
 25  7  2  0
M  END
$$$$
