
     RDKit          3D

 22 25  0  0  0  0  0  0  0  0999 V2000
   15.3050   -7.1150  -28.1580 C   0  0  2  0  0  0  0  0  0  3  0  0
   17.2320   -5.6300  -29.6710 C   0  0  0  0  0  0  0  0  0 19  0  0
   14.9330   -5.7910  -28.8550 C   0  0  0  0  0  0  0  0  0 21  0  0
   15.5800   -7.5740  -31.8590 C   0  0  0  0  0  0  0  0  0  0  0  0
   15.3210   -4.8870  -23.5250 C   0  0  0  0  0  0  0  0  0 14  0  0
   18.1050   -6.6340  -25.4470 C   0  0  0  0  0  0  0  0  0  9  0  0
   18.1880   -6.1250  -24.0010 C   0  0  0  0  0  0  0  0  0 10  0  0
   17.0680   -6.6830  -23.1330 C   0  0  0  0  0  0  0  0  0 11  0  0
   15.6850   -6.3760  -23.7160 C   0  0  2  0  0  0  0  0  0 12  0  0
   15.6580   -6.9110  -25.1720 C   0  0  1  0  0  0  0  0  0  6  0  0
   14.2950   -6.7940  -25.8570 C   0  0  0  0  0  0  0  0  0  5  0  0
   14.2510   -7.5490  -27.1610 C   0  0  0  0  0  0  0  0  0  4  0  0
   16.6850   -7.0450  -27.5000 C   0  0  1  0  0  0  0  0  0 17  0  0
   17.7090   -6.5030  -28.5040 C   0  0  0  0  0  0  0  0  0 18  0  0
   15.8000   -5.8250  -30.0950 C   0  0  2  0  0  0  0  0  0 20  0  0
   15.5470   -7.2070  -30.5790 C   0  0  0  0  0  0  0  0  0  1  0  0
   15.3600   -8.0850  -29.3770 C   0  0  0  0  0  0  0  0  0  2  0  0
   14.6540   -7.1010  -22.8590 C   0  0  0  0  0  0  0  0  0 13  0  0
   16.6140   -4.7940  -26.2770 C   0  0  0  0  0  0  0  0  0  8  0  0
   16.7450   -6.3100  -26.1060 C   0  0  2  0  0  0  0  0  0  7  0  0
   14.2630   -4.4640  -24.0500 O   0  0  0  0  0  0  0  0  0 15  0  0
   16.0890   -4.1760  -22.8440 O   0  0  0  0  0  0  0  0  0 16  0  0
  3  1  1  0
  6  7  1  6
  7  8  1  1
  9  5  1  6
  8  9  1  1
 10  9  1  0
 10 11  1  6
 12  1  1  6
 11 12  1  1
  1 13  1  0
 13 14  1  6
  2 14  1  6
  3 15  1  6
 15  2  1  0
 15 16  1  1
 16  4  2  0
 17 16  1  6
  1 17  1  6
 18  9  1  1
 20 10  1  0
 20 13  1  0
 20  6  1  0
 20 19  1  6
 21  5  2  0
 22  5  1  0
M  END
$$$$
