
     RDKit          3D

 36 39  0  0  0  0  0  0  0  0999 V2000
   16.0670   11.7780   18.5370 C   0  0  0  0  0  0  0  0  0 24  0  0
   16.7520   10.5700   18.4490 C   0  0  0  0  0  0  0  0  0 23  0  0
   18.0420   10.4800   17.7350 C   0  0  0  0  0  0  0  0  0 22  0  0
   18.7430   11.6130   17.3470 C   0  0  0  0  0  0  0  0  0 34  0  0
   18.5820    9.2570   17.3560 C   0  0  0  0  0  0  0  0  0 21  0  0
   19.7380    9.2020   16.6040 C   0  0  0  0  0  0  0  0  0 20  0  0
   20.3420   10.3980   16.2460 C   0  0  0  0  0  0  0  0  0 19  0  0
   21.5290   10.4710   15.2900 C   0  0  2  0  0  0  0  0  0 16  0  0
   12.0170   10.8290   20.0910 C   0  0  2  0  0  0  0  0  0 28  0  0
   22.9410   10.7410   15.8810 C   0  0  2  0  0  0  0  0  0  1  0  0
   22.9270   12.0940   16.6240 C   0  0  0  0  0  0  0  0  0  2  0  0
   25.0650   11.7260   17.8950 C   0  0  0  0  0  0  0  0  0  4  0  0
   23.9670   10.7300   14.7480 C   0  0  0  0  0  0  0  0  0  8  0  0
   24.1890   11.8230   13.9160 C   0  0  0  0  0  0  0  0  0 14  0  0
   25.1640   11.8750   12.9590 C   0  0  0  0  0  0  0  0  0 13  0  0
   25.9220   10.7530   12.7930 C   0  0  0  0  0  0  0  0  0 11  0  0
   25.7420    9.6120   13.5340 C   0  0  0  0  0  0  0  0  0 10  0  0
   24.7650    9.6130   14.5160 C   0  0  0  0  0  0  0  0  0  9  0  0
   14.3510   10.7630   19.8530 C   0  0  0  0  0  0  0  0  0 26  0  0
   14.9940    9.5430   19.7490 C   0  0  0  0  0  0  0  0  0 32  0  0
   16.1860    9.4550   19.0540 C   0  0  0  0  0  0  0  0  0 33  0  0
   14.8760   11.8790   19.2290 C   0  0  0  0  0  0  0  0  0 25  0  0
   11.8990    9.7120   19.3960 F   0  0  0  0  0  0  0  0  0 29  0  0
   21.3240   11.4860   14.4270 F   0  0  0  0  0  0  0  0  0 17  0  0
   21.5960    9.3350   14.5780 F   0  0  0  0  0  0  0  0  0 18  0  0
   11.0350   10.8330   20.9880 F   0  0  0  0  0  0  0  0  0 30  0  0
   23.3710   12.8940   14.0150 F   0  0  0  0  0  0  0  0  0 15  0  0
   26.8910   10.7740   11.8280 F   0  0  0  0  0  0  0  0  0 12  0  0
   11.8290   11.8530   19.2710 F   0  0  0  0  0  0  0  0  0 31  0  0
   19.8660   11.5900   16.6290 N   0  0  0  0  0  0  0  0  0 35  0  0
   24.2350   12.4370   17.1470 N   0  0  0  0  0  0  0  0  0  3  0  0
   24.8810   13.5420   16.7480 N   0  0  0  0  0  0  0  0  0  7  0  0
   26.0710   13.4580   17.2250 N   0  0  0  0  0  0  0  0  0  6  0  0
   26.2140   12.3200   17.9460 N   0  0  0  0  0  0  0  0  0  5  0  0
   23.1670    9.7030   16.8370 O   0  0  0  0  0  0  0  0  0  0  0  0
   13.2140   10.9020   20.6670 O   0  0  0  0  0  0  0  0  0 27  0  0
  2  1  2  0
  3  2  1  0
  4  3  2  0
  5  3  1  0
  6  5  2  0
  7  6  1  0
  8  7  1  0
 10  8  1  0
 11 10  1  0
 13 10  1  0
 14 13  2  0
 15 14  1  0
 16 15  2  0
 17 16  1  0
 18 17  2  0
 18 13  1  0
 20 19  1  0
 21 20  2  0
 21  2  1  0
 22 19  2  0
 22  1  1  0
  9 23  1  6
  8 24  1  6
 25  8  1  0
 26  9  1  0
 27 14  1  0
 28 16  1  0
 29  9  1  0
 30  7  2  0
 30  4  1  0
 31 12  1  0
 31 11  1  0
 32 31  1  0
 33 32  2  0
 34 33  1  0
 34 12  2  0
 10 35  1  1
 19 36  1  0
 36  9  1  0
M  END
$$$$
