
     RDKit          3D

 25 28  0  0  0  0  0  0  0  0999 V2000
    8.1120   30.7460   -7.3900 C   0  0  0  0  0  0  0  0  0 17  0  0
   -0.1090   29.0690   -6.6130 C   0  0  0  0  0  0  0  0  0  0  0  0
    8.4010   24.1110   -5.9570 C   0  0  0  0  0  0  0  0  0 20  0  0
    8.0620   23.2530   -4.8860 C   0  0  0  0  0  0  0  0  0 21  0  0
    4.1680   31.9880   -8.0760 C   0  0  0  0  0  0  0  0  0 13  0  0
    5.2280   32.9830   -8.0570 C   0  0  0  0  0  0  0  0  0 14  0  0
    4.3700   30.9710   -6.8850 C   0  0  0  0  0  0  0  0  0 12  0  0
    7.6180   25.2730   -6.2420 C   0  0  0  0  0  0  0  0  0 19  0  0
    6.9250   23.5450   -4.0780 C   0  0  0  0  0  0  0  0  0 22  0  0
    1.3660   26.2880   -5.3280 C   0  0  0  0  0  0  0  0  0  3  0  0
    2.2270   25.6730   -4.3930 C   0  0  0  0  0  0  0  0  0  4  0  0
    5.8870   29.3830   -5.7400 C   0  0  0  0  0  0  0  0  0 10  0  0
    6.5520   32.2980   -8.2070 C   0  0  0  0  0  0  0  0  0 15  0  0
    6.2970   27.9640   -6.2150 C   0  0  0  0  0  0  0  0  0  9  0  0
    3.3430   27.2070   -6.5050 C   0  0  0  0  0  0  0  0  0  7  0  0
    5.7230   30.2820   -6.9790 C   0  0  2  0  0  0  0  0  0 11  0  0
    1.9330   27.0560   -6.3800 C   0  0  0  0  0  0  0  0  0  2  0  0
    6.4730   25.5740   -5.4320 C   0  0  0  0  0  0  0  0  0 18  0  0
    4.2180   26.5890   -5.5660 C   0  0  0  0  0  0  0  0  0  6  0  0
    6.1360   24.6940   -4.3430 C   0  0  0  0  0  0  0  0  0 23  0  0
    3.6350   25.8170   -4.4990 C   0  0  0  0  0  0  0  0  0  5  0  0
    6.7880   31.3000   -7.0830 N   0  0  0  0  0  0  0  0  0 16  0  0
    5.6520   26.7340   -5.6680 N   0  0  0  0  0  0  0  0  0  8  0  0
    0.8630   27.8640   -7.5750 S   0  0  0  0  0  0  0  0  0  1  0  0
    4.7000   25.0340   -3.2840 S   0  0  0  0  0  0  0  0  0 24  0  0
  4  3  2  0
  6  5  1  0
  7  5  1  0
  8  3  1  0
  9  4  1  0
 11 10  1  0
 13  6  1  0
 14 12  1  0
 16  7  1  0
 16 12  1  1
 17 15  1  0
 17 10  2  0
 18  8  2  0
 19 15  2  0
 20 18  1  0
 20  9  2  0
 21 19  1  0
 21 11  2  0
 22 16  1  0
 22 13  1  0
 22  1  1  0
 23 19  1  0
 23 18  1  0
 23 14  1  0
 24 17  1  0
 24  2  1  0
 25 21  1  0
 25 20  1  0
M  END
$$$$
