
     RDKit          3D

 26 30  0  0  0  0  0  0  0  0999 V2000
   11.1920   36.5110  -77.9290 O   0  0  0  0  0  0  0  0  0  3  0  0
   10.9440   37.6960  -77.9470 C   0  0  0  0  0  0  0  0  0  2  0  0
   11.7590   38.6120  -77.4080 O   0  0  0  0  0  0  0  0  0  1  0  0
   12.9890   38.1000  -76.8440 C   0  0  0  0  0  0  0  0  0  0  0  0
    9.7060   38.2890  -78.5180 C   0  0  0  0  0  0  0  0  0  4  0  0
    9.7750   39.4570  -79.1550 C   0  0  0  0  0  0  0  0  0  5  0  0
    8.7070   40.1490  -79.6340 O   0  0  0  0  0  0  0  0  0  6  0  0
    7.3930   39.5370  -79.4370 C   0  0  1  0  0  0  0  0  0  7  0  0
    7.0060   38.8060  -80.6990 C   0  0  0  0  0  0  0  0  0  8  0  0
    8.3760   37.6140  -78.3050 C   0  0  2  0  0  0  0  0  0 25  0  0
    7.2950   38.7050  -78.1700 C   0  0  2  0  0  0  0  0  0  9  0  0
    8.3440   36.6550  -77.1100 C   0  0  0  0  0  0  0  0  0 24  0  0
    6.9600   36.0420  -77.0290 C   0  0  2  0  0  0  0  0  0 23  0  0
    5.9730   37.1100  -76.7790 N   0  0  0  0  0  0  0  0  0 11  0  0
    5.9390   38.0220  -77.9320 C   0  0  0  0  0  0  0  0  0 10  0  0
    6.8300   35.0180  -75.9540 C   0  0  0  0  0  0  0  0  0 15  0  0
    7.7610   34.0170  -75.7210 N   0  0  0  0  0  0  0  0  0 16  0  0
    7.2960   33.2270  -74.6860 C   0  0  0  0  0  0  0  0  0 17  0  0
    6.0600   33.7540  -74.2510 C   0  0  0  0  0  0  0  0  0 22  0  0
    5.7920   34.8930  -75.0960 C   0  0  0  0  0  0  0  0  0 14  0  0
    4.5850   35.7930  -75.1860 C   0  0  0  0  0  0  0  0  0 13  0  0
    4.6390   36.5590  -76.5050 C   0  0  0  0  0  0  0  0  0 12  0  0
    5.3880   33.1130  -73.2160 C   0  0  0  0  0  0  0  0  0 21  0  0
    5.9310   31.9700  -72.6410 C   0  0  0  0  0  0  0  0  0 20  0  0
    7.1390   31.4560  -73.0880 C   0  0  0  0  0  0  0  0  0 19  0  0
    7.8380   32.0760  -74.1130 C   0  0  0  0  0  0  0  0  0 18  0  0
  2  1  2  0
  3  2  1  0
  4  3  1  0
  5  2  1  0
  6  5  2  0
  7  6  1  0
  8  7  1  0
  8  9  1  6
 10  5  1  0
 11 10  1  0
 11  8  1  0
 10 12  1  1
 13 12  1  1
 14 13  1  0
 15 14  1  0
 11 15  1  6
 16 13  1  0
 17 16  1  0
 18 17  1  0
 19 18  2  0
 20 19  1  0
 20 16  2  0
 20 21  1  0
 22 21  1  0
 22 14  1  0
 23 19  1  0
 24 23  2  0
 25 24  1  0
 26 25  2  0
 26 18  1  0
M  END
$$$$
