
     RDKit          3D

 26 28  0  0  0  0  0  0  0  0999 V2000
   -2.0690   25.5500    4.8480 F   0  0  0  0  0  0  0  0  0 21  0  0
   -2.0730   26.5720    5.7340 C   0  0  0  0  0  0  0  0  0 20  0  0
   -3.2780   26.9430    6.3120 C   0  0  0  0  0  0  0  0  0  5  0  0
   -0.8780   27.1930    6.0000 C   0  0  0  0  0  0  0  0  0 19  0  0
   -0.9030   28.2410    6.8810 C   0  0  0  0  0  0  0  0  0 17  0  0
    0.2570   28.8720    7.1760 F   0  0  0  0  0  0  0  0  0 18  0  0
   -2.0530   28.6900    7.4930 C   0  0  0  0  0  0  0  0  0  7  0  0
   -3.2330   28.0150    7.1970 C   0  0  0  0  0  0  0  0  0  6  0  0
   -2.0460   29.8840    8.4140 C   0  0  0  0  0  0  0  0  0  8  0  0
   -3.0840   30.8730    8.0870 N   0  0  0  0  0  0  0  0  0  9  0  0
   -2.9860   32.1880    8.7730 C   0  0  1  0  0  0  0  0  0 10  0  0
   -4.2710   32.9790    8.7950 C   0  0  2  0  0  0  0  0  0 11  0  0
   -4.7310   33.2160    7.5720 F   0  0  0  0  0  0  0  0  0 12  0  0
   -4.1170   34.1600    9.3850 F   0  0  0  0  0  0  0  0  0 13  0  0
   -5.2350   32.3430    9.4500 F   0  0  0  0  0  0  0  0  0 14  0  0
   -2.0590   32.2410    9.9410 C   0  0  0  0  0  0  0  0  0 15  0  0
   -1.6940   32.9250    8.6530 C   0  0  0  0  0  0  0  0  0 16  0  0
   -4.6130   26.2570    6.0370 C   0  0  2  0  0  0  0  0  0  3  0  0
   -5.0370   26.4790    4.5670 C   0  0  0  0  0  0  0  0  0  2  0  0
   -5.1050   27.9500    4.1870 C   0  0  2  0  0  0  0  0  0  1  0  0
   -6.3750   28.8230    5.1680 S   0  0  0  0  0  0  0  0  0 25  0  0
   -6.3520   27.8550    6.6270 C   0  0  0  0  0  0  0  0  0 23  0  0
   -5.6320   26.8590    6.9140 N   0  0  0  0  0  0  0  0  0 22  0  0
   -7.2310   28.2960    7.5320 N   0  0  0  0  0  0  0  0  0 24  0  0
   -4.5290   24.7650    6.3480 C   0  0  0  0  0  0  0  0  0  4  0  0
   -5.4920   28.1450    2.7310 C   0  0  0  0  0  0  0  0  0  0  0  0
  2  1  1  0
  3  2  2  0
  4  2  1  0
  5  4  2  0
  6  5  1  0
  7  5  1  0
  8  3  1  0
  8  7  2  0
  9  7  1  0
 10  9  1  0
 11 10  1  6
 12 11  1  0
 12 13  1  6
 14 12  1  0
 15 12  1  0
 16 11  1  0
 17 16  1  0
 17 11  1  0
 18  3  1  0
 19 18  1  0
 20 19  1  0
 21 20  1  0
 22 21  1  0
 23 22  2  0
 23 18  1  0
 24 22  1  0
 18 25  1  1
 20 26  1  6
M  END
$$$$
