
     RDKit          3D

 15 16  0  0  0  0  0  0  0  0999 V2000
   56.0800   77.5020   60.5660 C   0  0  0  0  0  0  0  0  0  8  0  0
   56.5120   76.1540   60.8440 C   0  0  0  0  0  0  0  0  0  9  0  0
   57.8580   75.9290   61.1990 C   0  0  0  0  0  0  0  0  0 10  0  0
   58.7390   77.0660   61.2700 C   0  0  0  0  0  0  0  0  0 11  0  0
   58.3320   78.3220   61.0060 N   0  0  0  0  0  0  0  0  0 12  0  0
   57.0420   78.5430   60.6630 C   0  0  0  0  0  0  0  0  0 13  0  0
   54.7500   77.7860   60.2090 C   0  0  0  0  0  0  0  0  0  7  0  0
   53.6470   76.9970   60.0410 C   0  0  0  0  0  0  0  0  0  6  0  0
   52.5620   77.8640   59.6730 C   0  0  0  0  0  0  0  0  0  5  0  0
   53.0890   79.1440   59.6370 C   0  0  0  0  0  0  0  0  0  4  0  0
   54.4210   79.1370   59.9570 O   0  0  0  0  0  0  0  0  0 14  0  0
   52.4880   80.4590   59.2950 C   0  0  0  0  0  0  0  0  0  3  0  0
   52.7740   80.8910   57.9150 N   0  0  0  0  0  0  0  0  0  1  0  0
   54.1610   81.0130   57.7150 C   0  0  0  0  0  0  0  0  0  0  0  0
   52.2540   80.0130   56.9250 C   0  0  0  0  0  0  0  0  0  2  0  0
  2  1  2  0
  3  2  1  0
  4  3  2  0
  5  4  1  0
  6  5  2  0
  6  1  1  0
  7  1  1  0
  8  7  2  0
  9  8  1  0
 10  9  2  0
 11 10  1  0
 11  7  1  0
 12 10  1  0
 13 12  1  0
 14 13  1  0
 15 13  1  0
M  END
$$$$
