
     RDKit          3D

 14 15  0  0  0  0  0  0  0  0999 V2000
   56.0870   77.5400   60.5940 C   0  0  0  0  0  0  0  0  0  7  0  0
   56.4740   76.1860   60.8330 C   0  0  0  0  0  0  0  0  0  8  0  0
   57.8270   75.9270   61.2000 C   0  0  0  0  0  0  0  0  0  9  0  0
   58.6990   77.0500   61.3170 C   0  0  0  0  0  0  0  0  0 10  0  0
   58.3250   78.3270   61.0970 N   0  0  0  0  0  0  0  0  0 11  0  0
   57.0570   78.5880   60.7400 C   0  0  0  0  0  0  0  0  0 12  0  0
   54.7490   77.8390   60.2110 C   0  0  0  0  0  0  0  0  0  6  0  0
   53.6520   77.0670   60.0190 C   0  0  0  0  0  0  0  0  0  5  0  0
   52.5710   77.9620   59.6330 C   0  0  0  0  0  0  0  0  0  4  0  0
   53.1170   79.2170   59.6160 C   0  0  0  0  0  0  0  0  0  3  0  0
   54.4630   79.1820   59.9660 O   0  0  0  0  0  0  0  0  0 13  0  0
   52.5390   80.6000   59.2990 C   0  0  0  0  0  0  0  0  0  2  0  0
   52.7390   81.0530   57.9300 N   0  0  0  0  0  0  0  0  0  1  0  0
   53.0340   80.1650   56.8680 C   0  0  0  0  0  0  0  0  0  0  0  0
  2  1  2  0
  3  2  1  0
  4  3  2  0
  5  4  1  0
  6  5  2  0
  6  1  1  0
  7  1  1  0
  8  7  2  0
  9  8  1  0
 10  9  2  0
 11 10  1  0
 11  7  1  0
 12 10  1  0
 13 12  1  0
 14 13  1  0
M  END
$$$$
