
     RDKit          3D

 14 15  0  0  0  0  0  0  0  0999 V2000
   53.1580   78.9970   59.5700 C   0  0  0  0  0  0  0  0  0  1  0  0
   52.7720   80.3120   59.2420 C   0  0  0  0  0  0  0  0  0  0  0  0
   53.0480   80.8100   57.9950 N   0  0  0  0  0  0  0  0  0 13  0  0
   53.6860   80.1270   57.0000 C   0  0  0  0  0  0  0  0  0 12  0  0
   54.1110   78.7820   57.2630 C   0  0  0  0  0  0  0  0  0 11  0  0
   53.8300   78.2460   58.5650 C   0  0  0  0  0  0  0  0  0  2  0  0
   54.3310   76.6300   58.9380 S   0  0  0  0  0  0  0  0  0  3  0  0
   54.8440   76.7410   60.9500 S   0  0  0  0  0  0  0  0  0  4  0  0
   56.3920   77.5580   61.1130 C   0  0  0  0  0  0  0  0  0  5  0  0
   56.5330   78.9640   60.8270 C   0  0  0  0  0  0  0  0  0  6  0  0
   57.8240   79.5430   60.9830 C   0  0  0  0  0  0  0  0  0  7  0  0
   58.8600   78.7500   61.3970 N   0  0  0  0  0  0  0  0  0  8  0  0
   58.7680   77.4120   61.6800 C   0  0  0  0  0  0  0  0  0  9  0  0
   57.5100   76.7700   61.5440 C   0  0  0  0  0  0  0  0  0 10  0  0
  2  1  2  0
  3  2  1  0
  4  3  2  0
  5  4  1  0
  6  5  2  0
  6  1  1  0
  7  6  1  0
  8  7  1  0
  9  8  1  0
 10  9  2  0
 11 10  1  0
 12 11  2  0
 13 12  1  0
 14 13  2  0
 14  9  1  0
M  END
$$$$
