
     RDKit          3D

 27 28  0  0  0  0  0  0  0  0999 V2000
  -64.8780  -40.0800  -19.4560 C   0  0  0  0  0  0  0  0  0  0  0  0
  -64.7760  -40.5960  -20.8770 C   0  0  1  0  0  0  0  0  0  1  0  0
  -64.2590  -42.0120  -20.8890 C   0  0  0  0  0  0  0  0  0  3  0  0
  -64.6130  -42.8490  -20.0680 O   0  0  0  0  0  0  0  0  0  4  0  0
  -63.4050  -42.2230  -21.9530 N   0  0  0  0  0  0  0  0  0  5  0  0
  -62.5880  -43.3450  -22.1760 C   0  0  0  0  0  0  0  0  0  6  0  0
  -62.4610  -44.3690  -21.2550 C   0  0  0  0  0  0  0  0  0  7  0  0
  -61.6450  -45.4460  -21.5300 C   0  0  0  0  0  0  0  0  0  8  0  0
  -60.9630  -45.4720  -22.7280 C   0  0  0  0  0  0  0  0  0  9  0  0
  -61.0710  -44.4660  -23.6590 C   0  0  0  0  0  0  0  0  0 20  0  0
  -61.8930  -43.4000  -23.3700 C   0  0  0  0  0  0  0  0  0 21  0  0
  -62.0320  -42.1430  -24.5340 Cl  0  0  0  0  0  0  0  0  0 22  0  0
  -59.9190  -46.8590  -23.0830 S   0  0  1  0  0  0  0  0  0 10  0  0
  -59.1590  -46.5560  -24.2810 O   0  0  0  0  0  0  0  0  0 11  0  0
  -59.2800  -47.1870  -21.8240 O   0  0  0  0  0  0  0  0  0 12  0  0
  -61.0330  -48.1750  -23.5070 C   0  0  0  0  0  0  0  0  0 13  0  0
  -62.0780  -47.9000  -24.3660 C   0  0  0  0  0  0  0  0  0 14  0  0
  -62.9570  -48.9080  -24.7030 C   0  0  0  0  0  0  0  0  0 15  0  0
  -62.7760  -50.1730  -24.1800 C   0  0  0  0  0  0  0  0  0 16  0  0
  -61.7200  -50.4310  -23.3280 C   0  0  0  0  0  0  0  0  0 17  0  0
  -60.8340  -49.4330  -22.9770 C   0  0  0  0  0  0  0  0  0 19  0  0
  -61.4940  -52.1780  -22.6330 Br  0  0  0  0  0  0  0  0  0 18  0  0
  -66.0920  -40.5510  -21.6330 C   0  0  1  0  0  0  0  0  0 23  0  0
  -66.6140  -39.2940  -21.6580 F   0  0  0  0  0  0  0  0  0 24  0  0
  -65.9040  -40.9320  -22.9270 F   0  0  0  0  0  0  0  0  0 25  0  0
  -67.0190  -41.3870  -21.0870 F   0  0  0  0  0  0  0  0  0 26  0  0
  -63.8350  -39.7770  -21.5570 O   0  0  0  0  0  0  0  0  0  2  0  0
  2  1  1  1
  3  2  1  0
  4  3  2  0
  5  3  1  0
  6  5  1  0
  7  6  2  0
  8  7  1  0
  9  8  2  0
 10  9  1  0
 11 10  2  0
 11  6  1  0
 12 11  1  0
 13  9  1  1
 13 14  2  0
 15 13  2  0
 16 13  1  0
 17 16  2  0
 18 17  1  0
 19 18  2  0
 20 19  1  0
 21 20  2  0
 21 16  1  0
 22 20  1  0
 23  2  1  0
 23 24  1  6
 25 23  1  0
 26 23  1  0
 27  2  1  0
M  END
$$$$
