
     RDKit          3D

 28 29  0  0  0  0  0  0  0  0999 V2000
    6.6000   22.7420    2.8560 C   0  0  0  0  0  0  0  0  0  0  0  0
    6.5880   21.4210    3.4380 O   0  0  0  0  0  0  0  0  0  1  0  0
    6.9220   20.3300    2.6840 C   0  0  0  0  0  0  0  0  0  2  0  0
    8.1850   19.7550    2.8880 C   0  0  0  0  0  0  0  0  0  3  0  0
    8.5690   18.6300    2.1330 C   0  0  0  0  0  0  0  0  0  4  0  0
    9.8520   18.0530    2.2900 N   0  0  0  0  0  0  0  0  0  5  0  0
   10.2720   16.5570    1.6260 S   0  0  1  0  0  0  0  0  0  6  0  0
    8.9760   15.9840    1.3680 O   0  0  0  0  0  0  0  0  0  7  0  0
   11.1400   16.7600    0.4850 O   0  0  0  0  0  0  0  0  0  8  0  0
   11.1100   15.7930    3.1000 C   0  0  1  0  0  0  0  0  0  9  0  0
   10.3940   14.7470    3.7440 F   0  0  0  0  0  0  0  0  0 10  0  0
   12.3340   15.2510    2.6930 F   0  0  0  0  0  0  0  0  0 11  0  0
   11.3460   16.7800    4.0830 F   0  0  0  0  0  0  0  0  0 12  0  0
    7.6970   18.0900    1.1790 C   0  0  0  0  0  0  0  0  0 13  0  0
    6.4470   18.6340    0.9630 C   0  0  0  0  0  0  0  0  0 14  0  0
    5.6770   17.9950    0.0030 O   0  0  0  0  0  0  0  0  0 15  0  0
    5.9750   18.1080   -1.4120 C   0  0  0  0  0  0  0  0  0 16  0  0
    6.0210   19.7660    1.7250 C   0  0  0  0  0  0  0  0  0 17  0  0
    4.7700   20.3300    1.4870 O   0  0  0  0  0  0  0  0  0 18  0  0
    3.5520   19.7030    1.6850 C   0  0  0  0  0  0  0  0  0 19  0  0
    3.4560   18.3960    2.1840 C   0  0  0  0  0  0  0  0  0 20  0  0
    2.2180   17.8250    2.4070 C   0  0  0  0  0  0  0  0  0 21  0  0
    1.0450   18.5260    2.1390 C   0  0  0  0  0  0  0  0  0 22  0  0
   -0.2090   17.8780    2.3490 C   0  0  0  0  0  0  0  0  0 23  0  0
   -1.2140   17.3130    2.4410 N   0  0  0  0  0  0  0  0  0 24  0  0
    1.1090   19.8230    1.6230 C   0  0  0  0  0  0  0  0  0 25  0  0
   -0.3790   20.6710    1.2710 Cl  0  0  0  0  0  0  0  0  0 26  0  0
    2.3550   20.4060    1.4140 C   0  0  0  0  0  0  0  0  0 27  0  0
  2  1  1  0
  3  2  1  0
  4  3  2  0
  5  4  1  0
  6  5  1  0
  7  6  1  1
  7  8  2  0
  9  7  2  0
 10  7  1  0
 10 11  1  1
 12 10  1  0
 13 10  1  0
 14  5  2  0
 15 14  1  0
 16 15  1  0
 17 16  1  0
 18 15  2  0
 18  3  1  0
 19 18  1  0
 20 19  1  0
 21 20  2  0
 22 21  1  0
 23 22  2  0
 24 23  1  0
 25 24  3  0
 26 23  1  0
 27 26  1  0
 28 26  2  0
 28 20  1  0
M  END
$$$$
