
     RDKit          3D

 11 11  0  0  0  0  0  0  0  0999 V2000
    0.3280   -0.6820   17.7470 C   0  0  0  0  0  0  0  0  0  2  0  0
    1.0560   -1.6800   18.6100 C   0  0  0  0  0  0  0  0  0  3  0  0
    2.4900   -3.5460   20.2640 C   0  0  0  0  0  0  0  0  0  6  0  0
    0.7600   -3.0580   18.5160 C   0  0  0  0  0  0  0  0  0 10  0  0
    2.0090   -1.2640   19.5420 C   0  0  0  0  0  0  0  0  0  4  0  0
    2.7700   -2.1970   20.3360 C   0  0  0  0  0  0  0  0  0  5  0  0
    1.4690   -3.9600   19.3310 C   0  0  0  0  0  0  0  0  0  8  0  0
    1.1940   -5.3170   19.2710 O   0  0  0  0  0  0  0  0  0  9  0  0
    3.1090   -4.4520   21.0720 O   0  0  0  0  0  0  0  0  0  7  0  0
    1.0270   -0.8390   16.3690 C   0  0  0  0  0  0  0  0  0  1  0  0
    0.1960   -0.3140   15.3580 N   0  0  0  0  0  0  0  0  0  0  0  0
  2  1  1  0
  4  2  2  0
  5  2  1  0
  6  5  2  0
  6  3  1  0
  7  4  1  0
  7  3  2  0
  8  7  1  0
  9  3  1  0
 10  1  1  0
 11 10  1  0
M  END
$$$$
