
     RDKit          3D

 23 25  0  0  0  0  0  0  0  0999 V2000
  -11.8670   22.1950   -9.3890 S   0  0  0  0  0  0  0  0  0  8  0  0
  -13.5780   22.0720   -9.0450 C   0  0  0  0  0  0  0  0  0  9  0  0
  -14.2920   21.0080   -9.8940 C   0  0  0  0  0  0  0  0  0 10  0  0
  -14.6570   21.2840  -11.2990 C   0  0  0  0  0  0  0  0  0 18  0  0
  -14.3930   22.6030  -11.9400 C   0  0  0  0  0  0  0  0  0 19  0  0
  -15.3170   20.2000  -12.0240 C   0  0  0  0  0  0  0  0  0 15  0  0
  -15.5590   20.2810  -13.3640 O   0  0  0  0  0  0  0  0  0 16  0  0
  -14.5640   19.6200  -14.1840 C   0  0  0  0  0  0  0  0  0 17  0  0
  -15.4800   18.9280  -11.2920 C   0  0  0  0  0  0  0  0  0 13  0  0
  -16.0850   17.6750  -11.9300 C   0  0  0  0  0  0  0  0  0 14  0  0
  -15.0790   18.8320   -9.9980 C   0  0  0  0  0  0  0  0  0 12  0  0
  -14.4870   19.8090   -9.3390 N   0  0  0  0  0  0  0  0  0 11  0  0
  -11.5260   23.6470   -8.5570 C   0  0  0  0  0  0  0  0  0  7  0  0
  -12.3250   24.2650   -7.6390 N   0  0  0  0  0  0  0  0  0 20  0  0
  -11.6100   25.4330   -7.2740 C   0  0  0  0  0  0  0  0  0 21  0  0
  -10.3580   25.4030   -8.0530 C   0  0  0  0  0  0  0  0  0  5  0  0
  -10.3730   24.3100   -8.8400 N   0  0  0  0  0  0  0  0  0  6  0  0
  -11.8480   26.4730   -6.3540 C   0  0  0  0  0  0  0  0  0 22  0  0
  -10.9170   27.5220   -6.3040 C   0  0  0  0  0  0  0  0  0  2  0  0
  -11.1640   28.5930   -5.4370 O   0  0  0  0  0  0  0  0  0  1  0  0
  -10.0890   29.4020   -4.9120 C   0  0  0  0  0  0  0  0  0  0  0  0
   -9.7520   27.5370   -7.1040 C   0  0  0  0  0  0  0  0  0  3  0  0
   -9.4690   26.4870   -7.9830 C   0  0  0  0  0  0  0  0  0  4  0  0
  2  1  1  0
  3  2  1  0
  4  3  2  0
  5  4  1  0
  6  4  1  0
  6  7  1  0
  8  7  1  0
  9  6  2  0
 10  9  1  0
 11  9  1  0
 12 11  2  0
 12  3  1  0
 13  1  1  0
 14 13  1  0
 15 14  1  0
 16 15  2  0
 17 13  2  0
 17 16  1  0
 18 15  1  0
 19 18  2  0
 20 19  1  0
 21 20  1  0
 22 19  1  0
 16 23  1  0
 23 22  2  0
M  END
$$$$
