
     RDKit          3D

 31 34  0  0  0  0  0  0  0  0999 V2000
  -19.7670   -6.6550    8.7050 C   0  0  0  0  0  0  0  0  0 11  0  0
  -19.9850   -7.6620    9.7970 C   0  0  0  0  0  0  0  0  0 10  0  0
  -20.1950   -9.0560    9.2900 C   0  0  0  0  0  0  0  0  0  5  0  0
  -20.7480  -10.0490   10.1630 C   0  0  0  0  0  0  0  0  0  6  0  0
  -21.0730   -9.6260   11.5610 C   0  0  0  0  0  0  0  0  0  7  0  0
  -20.9320  -11.4230    9.6830 C   0  0  0  0  0  0  0  0  0  8  0  0
  -21.4640  -12.3360   10.4780 O   0  0  0  0  0  0  0  0  0  9  0  0
  -20.5710  -11.8000    8.3130 C   0  0  0  0  0  0  0  0  0  1  0  0
  -20.7900  -13.2390    7.8810 C   0  0  0  0  0  0  0  0  0  0  0  0
  -19.9810  -10.7720    7.4120 C   0  0  0  0  0  0  0  0  0  2  0  0
  -19.6110  -11.0550    6.0070 C   0  0  0  0  0  0  0  0  0  3  0  0
  -19.8050   -9.3970    7.9240 C   0  0  0  0  0  0  0  0  0  4  0  0
  -19.3490   -8.4440    7.1130 O   0  0  0  0  0  0  0  0  0 30  0  0
  -18.9410   -7.1770    7.5450 C   0  0  2  0  0  0  0  0  0 12  0  0
  -17.4860   -7.3150    7.9250 C   0  0  0  0  0  0  0  0  0 13  0  0
  -19.0200   -6.2300    6.3900 C   0  0  0  0  0  0  0  0  0 14  0  0
  -20.2780   -6.1350    5.7890 O   0  0  0  0  0  0  0  0  0 15  0  0
  -20.5230   -5.0960    4.9600 C   0  0  0  0  0  0  0  0  0 16  0  0
  -19.5460   -4.5000    4.1810 C   0  0  0  0  0  0  0  0  0 17  0  0
  -19.8230   -3.4250    3.3430 C   0  0  0  0  0  0  0  0  0 18  0  0
  -21.7860   -4.5700    4.8810 C   0  0  0  0  0  0  0  0  0 29  0  0
  -22.0720   -3.5200    4.0690 C   0  0  0  0  0  0  0  0  0 28  0  0
  -21.1100   -2.9400    3.3040 C   0  0  0  0  0  0  0  0  0 19  0  0
  -21.5030   -1.8050    2.4050 C   0  0  0  0  0  0  0  0  0 20  0  0
  -21.2340   -0.3920    2.8410 C   0  0  1  0  0  0  0  0  0 21  0  0
  -21.3750    0.6630    1.4120 S   0  0  0  0  0  0  0  0  0 22  0  0
  -22.2190    1.7130    2.3810 C   0  0  0  0  0  0  0  0  0 23  0  0
  -22.2080    2.8900    2.1480 O   0  0  0  0  0  0  0  0  0 24  0  0
  -22.8320    1.2260    3.4380 N   0  0  0  0  0  0  0  0  0 25  0  0
  -22.3100    0.0760    3.7940 C   0  0  0  0  0  0  0  0  0 26  0  0
  -22.7110   -0.5480    4.7400 O   0  0  0  0  0  0  0  0  0 27  0  0
  2  1  1  0
  3  2  1  0
  4  3  2  0
  5  4  1  0
  6  4  1  0
  7  6  1  0
  8  6  2  0
  9  8  1  0
 10  8  1  0
 10 11  1  0
 12 10  2  0
 12  3  1  0
 12 13  1  0
 14 13  1  0
 14  1  1  0
 14 15  1  1
 16 14  1  0
 17 16  1  0
 18 17  1  0
 19 18  2  0
 20 19  1  0
 21 18  1  0
 22 21  2  0
 23 22  1  0
 23 20  2  0
 24 23  1  0
 25 24  1  6
 26 25  1  0
 27 26  1  0
 27 28  2  0
 29 27  1  0
 30 29  1  0
 30 25  1  0
 30 31  2  0
M  END
$$$$
