
     RDKit          3D

 26 27  0  0  0  0  0  0  0  0999 V2000
   20.4190    7.0850   27.0380 O   0  0  0  0  0  0  0  0  0 22  0  0
   20.2850    8.3070   27.2950 C   0  0  0  0  0  0  0  0  0 21  0  0
   21.2750    9.0570   27.3550 O   0  0  0  0  0  0  0  0  0 23  0  0
   18.8920    8.8510   27.5410 C   0  0  2  0  0  0  0  0  0 13  0  0
   18.4780    8.5020   28.9760 C   0  0  0  0  0  0  0  0  0 14  0  0
   19.0670    9.3670   30.0830 C   0  0  0  0  0  0  0  0  0 15  0  0
   19.1100   10.7720   29.9920 C   0  0  0  0  0  0  0  0  0 16  0  0
   19.6260   11.5340   31.0540 C   0  0  0  0  0  0  0  0  0 17  0  0
   20.0810   10.8840   32.2170 C   0  0  0  0  0  0  0  0  0 18  0  0
   20.0390    9.4760   32.3050 C   0  0  0  0  0  0  0  0  0 19  0  0
   19.5290    8.7190   31.2480 C   0  0  0  0  0  0  0  0  0 20  0  0
   17.9360    8.2120   26.6310 N   0  0  0  0  0  0  0  0  0 12  0  0
   16.8910    8.8040   26.0310 C   0  0  0  0  0  0  0  0  0 10  0  0
   16.5670    9.9500   26.2130 O   0  0  0  0  0  0  0  0  0 11  0  0
   16.0720    8.0090   25.0290 C   0  0  1  0  0  0  0  0  0  8  0  0
   15.4120    9.0230   24.0830 C   0  0  0  0  0  0  0  0  0  9  0  0
   16.8490    6.9630   24.2380 C   0  0  0  0  0  0  0  0  0  7  0  0
   16.3410    5.6630   24.1250 C   0  0  0  0  0  0  0  0  0  6  0  0
   17.0270    4.7010   23.3930 C   0  0  0  0  0  0  0  0  0  5  0  0
   18.0640    7.2680   23.5830 C   0  0  0  0  0  0  0  0  0 24  0  0
   18.7700    6.2880   22.8390 C   0  0  0  0  0  0  0  0  0 25  0  0
   18.2430    5.0050   22.7560 C   0  0  0  0  0  0  0  0  0  4  0  0
   18.9790    3.9220   21.9770 C   0  0  0  0  0  0  0  0  0  3  0  0
   18.8770    4.1120   20.4760 C   0  0  2  0  0  0  0  0  0  1  0  0
   17.5020    4.5850   20.0630 C   0  0  0  0  0  0  0  0  0  0  0  0
   19.2510    2.8460   19.7190 C   0  0  0  0  0  0  0  0  0  2  0  0
  2  1  2  0
  3  2  1  0
  4  2  1  0
  4  5  1  1
  6  5  1  0
  7  6  2  0
  8  7  1  0
  9  8  2  0
 10  9  1  0
 11 10  2  0
 11  6  1  0
 12  4  1  0
 13 12  1  0
 14 13  2  0
 15 13  1  0
 15 16  1  6
 17 15  1  0
 18 17  2  0
 19 18  1  0
 20 17  1  0
 21 20  2  0
 22 19  2  0
 22 21  1  0
 23 22  1  0
 24 23  1  0
 24 25  1  1
 26 24  1  0
M  END
$$$$
