
     RDKit          3D

 30 32  0  0  0  0  0  0  0  0999 V2000
   22.3780    8.5220   27.5510 O   0  0  0  0  0  0  0  0  0  0  0  0
   19.4060    6.5620   22.6320 O   0  0  0  0  0  0  0  0  0 21  0  0
   18.9210    5.7010   23.3340 C   0  0  0  0  0  0  0  0  0 20  0  0
   19.2300    4.2440   23.1100 C   0  0  0  0  0  0  0  0  0 22  0  0
   20.4980    4.0970   22.2840 C   0  0  0  0  0  0  0  0  0 23  0  0
   20.1730    3.5620   20.9010 C   0  0  1  0  0  0  0  0  0 24  0  0
   20.5120    2.0850   20.7890 C   0  0  0  0  0  0  0  0  0 25  0  0
   20.2210    1.6400   19.3610 C   0  0  0  0  0  0  0  0  0 26  0  0
   19.6800    2.7910   18.5220 C   0  0  0  0  0  0  0  0  0 27  0  0
   18.4290    3.3590   19.1650 C   0  0  0  0  0  0  0  0  0 28  0  0
   18.6980    3.7220   20.6120 C   0  0  0  0  0  0  0  0  0 29  0  0
   18.0930    5.9650   24.3250 N   0  0  0  0  0  0  0  0  0 19  0  0
   17.6750    5.0220   25.3540 C   0  0  0  0  0  0  0  0  0 18  0  0
   16.1510    4.9770   25.3970 C   0  0  0  0  0  0  0  0  0 17  0  0
   15.5430    6.3550   25.5820 C   0  0  0  0  0  0  0  0  0 16  0  0
   16.0460    7.2930   24.5050 C   0  0  0  0  0  0  0  0  0 15  0  0
   17.5680    7.3170   24.4430 C   0  0  1  0  0  0  0  0  0 14  0  0
   18.1940    8.1740   25.5030 C   0  0  0  0  0  0  0  0  0 12  0  0
   17.7100    9.2470   25.7680 O   0  0  0  0  0  0  0  0  0 13  0  0
   19.2860    7.6980   26.0760 N   0  0  0  0  0  0  0  0  0 11  0  0
   20.0640    8.4100   27.0660 C   0  0  2  0  0  0  0  0  0  3  0  0
   21.4400    7.8100   27.1630 C   0  0  0  0  0  0  0  0  0  1  0  0
   21.5880    6.6250   26.8330 O   0  0  0  0  0  0  0  0  0  2  0  0
   19.3210    8.2740   28.3860 C   0  0  0  0  0  0  0  0  0  4  0  0
   19.9830    8.9690   29.5470 C   0  0  0  0  0  0  0  0  0  5  0  0
   20.6000    8.1970   30.5180 C   0  0  0  0  0  0  0  0  0  6  0  0
   21.2070    8.8080   31.6040 C   0  0  0  0  0  0  0  0  0  7  0  0
   21.1810   10.1950   31.7230 C   0  0  0  0  0  0  0  0  0  8  0  0
   20.5530   10.9710   30.7530 C   0  0  0  0  0  0  0  0  0  9  0  0
   19.9490   10.3540   29.6650 C   0  0  0  0  0  0  0  0  0 10  0  0
  3  2  2  0
  4  3  1  0
  5  4  1  0
  6  5  1  1
  7  6  1  0
  8  7  1  0
  9  8  1  0
 10  9  1  0
 11 10  1  0
 11  6  1  0
 12  3  1  0
 13 12  1  0
 14 13  1  0
 15 14  1  0
 16 15  1  0
 17 16  1  0
 17 12  1  0
 17 18  1  1
 19 18  2  0
 20 18  1  0
 21 20  1  0
 22 21  1  0
 22  1  2  0
 23 22  1  0
 21 24  1  1
 25 24  1  0
 26 25  2  0
 27 26  1  0
 28 27  2  0
 29 28  1  0
 30 25  1  0
 30 29  2  0
M  END
$$$$
