
     RDKit          3D

  7  7  0  0  0  0  0  0  0  0999 V2000
   -2.8000   -2.8440   17.7830 C   0  0  0  0  0  0  0  0  0  0  0  0
   -3.6990   -1.8020   18.3750 C   0  0  0  0  0  0  0  0  0  1  0  0
   -4.8420   -2.2270   18.9100 C   0  0  0  0  0  0  0  0  0  2  0  0
   -5.6810   -1.3390   19.4730 C   0  0  0  0  0  0  0  0  0  3  0  0
   -5.3990   -0.0140   19.5090 C   0  0  0  0  0  0  0  0  0  4  0  0
   -4.2380    0.4350   18.9520 C   0  0  0  0  0  0  0  0  0  5  0  0
   -3.3610   -0.4590   18.3830 C   0  0  0  0  0  0  0  0  0  6  0  0
  1  2  1  1
  3  2  2  0
  4  3  1  0
  5  4  2  0
  6  5  1  0
  7  6  2  0
  7  2  1  0
M  END
$$$$
