
     RDKit          3D

 23 24  0  0  0  0  0  0  0  0999 V2000
  -16.7080  -18.7840  -22.4970 C   0  0  0  0  0  0  0  0  0  1  0  0
  -14.7850  -17.6620  -23.7090 C   0  0  1  0  0  0  0  0  0 12  0  0
  -13.5180  -18.0540  -24.4640 C   0  0  0  0  0  0  0  0  0 13  0  0
  -13.7380  -18.9920  -25.6480 C   0  0  0  0  0  0  0  0  0 14  0  0
  -13.9320  -18.4620  -26.9170 C   0  0  0  0  0  0  0  0  0 15  0  0
  -14.1330  -19.3070  -27.9980 C   0  0  0  0  0  0  0  0  0 16  0  0
  -14.1290  -20.6830  -27.8110 C   0  0  0  0  0  0  0  0  0 17  0  0
  -13.9360  -21.2120  -26.5440 C   0  0  0  0  0  0  0  0  0 18  0  0
  -13.7370  -20.3650  -25.4610 C   0  0  0  0  0  0  0  0  0 19  0  0
  -15.6410  -16.7780  -24.6130 C   0  0  0  0  0  0  0  0  0 20  0  0
  -17.4110  -20.0680  -22.0620 C   0  0  0  0  0  0  0  0  0  2  0  0
  -17.8710  -19.9060  -20.6190 C   0  0  0  0  0  0  0  0  0  3  0  0
  -17.9880  -21.2240  -19.8590 C   0  0  0  0  0  0  0  0  0  4  0  0
  -17.2820  -21.1600  -18.5060 C   0  0  0  0  0  0  0  0  0  5  0  0
  -19.2600  -21.4560  -17.0640 C   0  0  0  0  0  0  0  0  0  7  0  0
  -19.6610  -22.3960  -16.1290 C   0  0  0  0  0  0  0  0  0  8  0  0
  -17.7490  -22.9680  -16.9030 C   0  0  0  0  0  0  0  0  0 10  0  0
  -15.4920  -18.8610  -23.2870 N   0  0  0  0  0  0  0  0  0 11  0  0
  -18.0790  -21.8450  -17.5080 N   0  0  0  0  0  0  0  0  0  6  0  0
  -18.7040  -23.3060  -16.0600 N   0  0  0  0  0  0  0  0  0  9  0  0
  -17.1590  -17.7350  -22.1760 O   0  0  0  0  0  0  0  0  0  0  0  0
  -16.7590  -17.1800  -25.0290 O   0  0  0  0  0  0  0  0  0 21  0  0
  -15.2130  -15.6410  -24.9440 O   0  0  0  0  0  0  0  0  0 22  0  0
  2  3  1  6
  4  3  1  0
  5  4  2  0
  6  5  1  0
  7  6  2  0
  8  7  1  0
  9  8  2  0
  9  4  1  0
 10  2  1  0
 11  1  1  0
 12 11  1  0
 13 12  1  0
 14 13  1  0
 16 15  2  0
 18  1  1  0
 18  2  1  0
 19 17  1  0
 19 15  1  0
 19 14  1  0
 20 17  2  0
 20 16  1  0
 21  1  2  0
 22 10  2  0
 23 10  1  0
M  END
$$$$
