
     RDKit          3D

  9  9  0  0  0  0  0  0  0  0999 V2000
   -3.5510   -2.6980   17.3540 C   0  0  0  0  0  0  0  0  0  0  0  0
   -3.5920   -1.1950   17.0860 C   0  0  0  0  0  0  0  0  0  1  0  0
   -2.8400   -0.3730   18.1430 C   0  0  0  0  0  0  0  0  0  2  0  0
   -3.8610    0.1710   19.1300 C   0  0  0  0  0  0  0  0  0  3  0  0
   -4.4960    1.3740   18.8780 C   0  0  0  0  0  0  0  0  0  4  0  0
   -5.4390    1.8600   19.7640 C   0  0  0  0  0  0  0  0  0  5  0  0
   -5.7430    1.1280   20.8940 C   0  0  0  0  0  0  0  0  0  6  0  0
   -5.1080   -0.0810   21.1430 C   0  0  0  0  0  0  0  0  0  7  0  0
   -4.1620   -0.5680   20.2600 C   0  0  0  0  0  0  0  0  0  8  0  0
  2  1  1  0
  3  2  1  0
  4  3  1  0
  5  4  2  0
  6  5  1  0
  7  6  2  0
  8  7  1  0
  9  8  2  0
  9  4  1  0
M  END
$$$$
