
     RDKit          3D

  9 10  0  0  0  0  0  0  0  0999 V2000
  -19.5050  -25.8110  -19.5000 C   0  0  0  0  0  0  0  0  0  5  0  0
  -18.8970  -25.0270  -20.3260 C   0  0  0  0  0  0  0  0  0  0  0  0
  -20.1510  -25.2820  -18.4740 C   0  0  0  0  0  0  0  0  0  4  0  0
  -20.8910  -26.0550  -17.4120 C   0  0  0  0  0  0  0  0  0  6  0  0
  -21.5650  -24.9480  -16.7950 C   0  0  0  0  0  0  0  0  0  7  0  0
  -20.9110  -23.6230  -17.0220 C   0  0  0  0  0  0  0  0  0  8  0  0
  -20.1420  -23.9060  -18.2920 C   0  0  0  0  0  0  0  0  0  3  0  0
  -19.4820  -23.0970  -19.1610 C   0  0  0  0  0  0  0  0  0  2  0  0
  -18.8830  -23.6510  -20.2610 C   0  0  0  0  0  0  0  0  0  1  0  0
  2  1  2  0
  3  1  1  0
  4  3  1  6
  5  4  1  6
  6  5  1  0
  6  7  1  6
  7  3  2  0
  8  7  1  0
  9  8  2  0
  9  2  1  0
M  END
$$$$
