
     RDKit          3D

 29 30  0  0  0  0  0  0  0  0999 V2000
   -2.7450    6.9240    9.5770 O   0  0  0  0  0  0  0  0  0 27  0  0
   -2.1180    8.9480    9.2170 O   0  0  0  0  0  0  0  0  0 26  0  0
   -2.0130    7.8580   12.7410 O   0  0  0  0  0  0  0  0  0 23  0  0
    0.1110    4.6930   11.0090 O   0  0  0  0  0  0  0  0  0 20  0  0
    1.9980    4.1360   15.5270 O   0  0  0  0  0  0  0  0  0  6  0  0
    1.7980    2.4180   16.9780 O   0  0  0  0  0  0  0  0  0  5  0  0
   -1.9920    7.8680    9.7660 C   0  0  0  0  0  0  0  0  0 25  0  0
   -0.8320    7.6880   10.7200 C   0  0  0  0  0  0  0  0  0 24  0  0
   -1.3000    6.9380   11.9530 C   0  0  1  0  0  0  0  0  0 22  0  0
   -0.1470    6.3160   12.7610 C   0  0  0  0  0  0  0  0  0 21  0  0
    0.8370    5.4460   11.9820 C   0  0  1  0  0  0  0  0  0 19  0  0
    1.5960    4.4890   12.8790 C   0  0  0  0  0  0  0  0  0 18  0  0
    3.1040    4.3400   12.6660 C   0  0  0  0  0  0  0  0  0 17  0  0
    4.0030    4.8690   13.7900 C   0  0  1  0  0  0  0  0  0 16  0  0
    5.3250    5.3270   13.1410 C   0  0  2  0  0  0  0  0  0 14  0  0
    6.3540    5.3810   14.2280 C   0  0  0  0  0  0  0  0  0 13  0  0
    6.0690    6.1510   15.2640 C   0  0  0  0  0  0  0  0  0 12  0  0
    4.6990    6.3560   15.7000 C   0  0  0  0  0  0  0  0  0 11  0  0
    4.5340    6.8940   16.8810 C   0  0  0  0  0  0  0  0  0 10  0  0
    3.1530    7.2410   17.3200 C   0  0  0  0  0  0  0  0  0  9  0  0
    2.2080    6.0910   17.0640 C   0  0  0  0  0  0  0  0  0  8  0  0
    2.2840    5.5710   15.6280 C   0  0  1  0  0  0  0  0  0  7  0  0
    3.5400    5.9470   14.8050 C   0  0  2  0  0  0  0  0  0 28  0  0
    5.2080    6.7320   12.5600 C   0  0  0  0  0  0  0  0  0 15  0  0
    1.3700    3.4390   16.5250 C   0  0  0  0  0  0  0  0  0  4  0  0
    0.1230    4.1430   17.0000 C   0  0  2  0  0  0  0  0  0  2  0  0
   -0.6360    3.3220   18.0130 C   0  0  0  0  0  0  0  0  0  1  0  0
   -1.7360    2.4650   17.4390 C   0  0  0  0  0  0  0  0  0  0  0  0
   -0.7420    4.6010   15.8370 C   0  0  0  0  0  0  0  0  0  3  0  0
  7  2  2  0
  7  1  1  0
  8  7  1  0
  9  8  1  0
  9  3  1  1
 10  9  1  0
 11  4  1  6
 11 10  1  0
 12 11  1  0
 13 12  1  0
 14 13  1  6
 15 14  1  0
 16 15  1  0
 17 16  2  0
 18 17  1  0
 19 18  2  0
 20 19  1  0
 21 20  1  0
 22  5  1  1
 22 21  1  0
 23 14  1  0
 23 22  1  0
 23 18  1  1
 15 24  1  1
 25  5  1  0
 25  6  2  0
 26 25  1  0
 27 26  1  0
 28 27  1  0
 26 29  1  6
M  END
$$$$
