
     RDKit          3D

 16 17  0  0  0  0  0  0  0  0999 V2000
   55.8860   25.2540   49.5210 C   0  0  0  0  0  0  0  0  0  7  0  0
   54.9790   26.3300   49.3990 C   0  0  0  0  0  0  0  0  0 12  0  0
   53.6120   26.0590   49.5090 C   0  0  0  0  0  0  0  0  0 11  0  0
   58.1810   30.0720   49.0560 C   0  0  0  0  0  0  0  0  0  0  0  0
   57.0570   27.1210   49.2090 C   0  0  0  0  0  0  0  0  0  5  0  0
   55.7570   27.5230   49.1890 C   0  0  0  0  0  0  0  0  0  4  0  0
   55.2390   28.9160   48.9560 C   0  0  0  0  0  0  0  0  0  3  0  0
   55.4620   29.8340   50.1460 C   0  0  2  0  0  0  0  0  0  2  0  0
   54.8350   31.2310   50.0680 C   0  0  0  0  0  0  0  0  0 13  0  0
   57.1390   25.7660   49.3890 N   0  0  0  0  0  0  0  0  0  6  0  0
   55.4750   23.9460   49.7380 C   0  0  0  0  0  0  0  0  0  8  0  0
   53.2080   24.7670   49.7590 C   0  0  0  0  0  0  0  0  0 10  0  0
   54.1300   23.7260   49.8800 C   0  0  0  0  0  0  0  0  0  9  0  0
   55.5770   32.2010   49.8960 O   0  0  0  0  0  0  0  0  0 14  0  0
   53.6960   31.2770   50.2550 O   0  0  0  0  0  0  0  0  0 15  0  0
   57.1530   30.2060   50.5530 S   0  0  0  0  0  0  0  0  0  1  0  0
  2  1  1  0
  3  2  2  0
  6  5  2  0
  6  2  1  0
  7  6  1  1
  8  7  1  0
  9  8  1  0
 10  5  1  0
 10  1  1  0
 11  1  2  0
 12  3  1  0
 13 12  2  0
 13 11  1  0
  9 14  2  0
 15  9  1  0
  8 16  1  6
  4 16  1  1
M  END
$$$$
