
     RDKit          3D

 28 29  0  0  0  0  0  0  0  0999 V2000
   16.5140    6.1060   40.9690 Cl  0  0  0  0  0  0  0  0  0 27  0  0
   16.5350    5.7090   39.2910 C   0  0  0  0  0  0  0  0  0 26  0  0
   15.9400    6.5620   38.3680 C   0  0  0  0  0  0  0  0  0 25  0  0
   15.9560    6.2420   37.0160 C   0  0  0  0  0  0  0  0  0 24  0  0
   16.5660    5.0700   36.5850 C   0  0  0  0  0  0  0  0  0 23  0  0
   17.1610    4.2170   37.5080 C   0  0  0  0  0  0  0  0  0 22  0  0
   17.1450    4.5370   38.8610 C   0  0  0  0  0  0  0  0  0 21  0  0
   17.7400    3.6850   39.7830 C   0  0  1  0  0  0  0  0  0 20  0  0
   17.1470    2.4230   39.7410 C   0  0  0  0  0  0  0  0  0  5  0  0
   15.8390    2.2370   39.2960 C   0  0  0  0  0  0  0  0  0  3  0  0
   15.3450    1.1110   39.2670 O   0  0  0  0  0  0  0  0  0  4  0  0
   15.1720    3.3590   38.9140 O   0  0  0  0  0  0  0  0  0  2  0  0
   13.9700    2.9910   38.2340 C   0  0  0  0  0  0  0  0  0  1  0  0
   12.8540    3.9710   38.6030 C   0  0  0  0  0  0  0  0  0  0  0  0
   19.0850    3.5490   39.4680 C   0  0  0  0  0  0  0  0  0 15  0  0
   19.7390    4.5310   38.7320 C   0  0  0  0  0  0  0  0  0 16  0  0
   19.1500    5.5430   38.3560 O   0  0  0  0  0  0  0  0  0 17  0  0
   21.0510    4.2800   38.4810 O   0  0  0  0  0  0  0  0  0 18  0  0
   21.5590    5.2590   37.5690 C   0  0  0  0  0  0  0  0  0 19  0  0
   19.7780    2.4120   39.8670 C   0  0  0  0  0  0  0  0  0 13  0  0
   21.1230    2.1910   39.5980 C   0  0  0  0  0  0  0  0  0 14  0  0
   19.1280    1.4920   40.5760 N   0  0  0  0  0  0  0  0  0 12  0  0
   17.8810    1.3120   40.1400 C   0  0  0  0  0  0  0  0  0  6  0  0
   17.3810    0.0160   40.1380 C   0  0  0  0  0  0  0  0  0  7  0  0
   17.1850   -0.4230   41.4860 O   0  0  0  0  0  0  0  0  0  8  0  0
   16.0910    0.2930   42.0660 C   0  0  0  0  0  0  0  0  0  9  0  0
   14.8870   -0.6400   42.2060 C   0  0  0  0  0  0  0  0  0 10  0  0
   14.8880   -1.3080   43.5150 N   0  0  0  0  0  0  0  0  0 11  0  0
  2  1  1  0
  3  2  2  0
  4  3  1  0
  5  4  2  0
  6  5  1  0
  7  6  2  0
  7  2  1  0
  8  7  1  6
  9  8  1  0
 10  9  1  0
 11 10  2  0
 12 10  1  0
 13 12  1  0
 14 13  1  0
 15  8  1  0
 16 15  1  0
 17 16  2  0
 18 16  1  0
 19 18  1  0
 20 15  2  0
 21 20  1  0
 22 20  1  0
 23 22  1  0
 23  9  2  0
 24 23  1  0
 25 24  1  0
 26 25  1  0
 27 26  1  0
 28 27  1  0
M  END
$$$$
