
     RDKit          3D

 10 11  0  0  0  0  0  0  0  0999 V2000
    3.8670   -5.8520  -24.3920 C   0  0  2  0  0  0  0  0  0  1  0  0
    5.0750   -6.0960  -23.4950 C   0  0  0  0  0  0  0  0  0  2  0  0
    6.0190   -6.8410  -24.4550 C   0  0  0  0  0  0  0  0  0  3  0  0
    5.2220   -6.9240  -25.7560 C   0  0  1  0  0  0  0  0  0  4  0  0
    4.0720   -7.9080  -25.5500 C   0  0  0  0  0  0  0  0  0  5  0  0
    3.1220   -7.1660  -24.5940 C   0  0  0  0  0  0  0  0  0  6  0  0
    4.4890   -5.6210  -25.7220 C   0  0  1  0  0  0  0  0  0  7  0  0
    3.4390   -5.5290  -26.8340 C   0  0  0  0  0  0  0  0  0  8  0  0
    5.4420   -4.4240  -25.7120 C   0  0  0  0  0  0  0  0  0  9  0  0
    2.9630   -4.7120  -23.8960 C   0  0  0  0  0  0  0  0  0  0  0  0
  2  1  1  0
  3  2  1  0
  4  3  1  1
  5  4  1  0
  6  5  1  0
  6  1  1  0
  7  4  1  0
  7  1  1  0
  7  8  1  6
  9  7  1  0
  1 10  1  1
M  END
$$$$
