
     RDKit          3D

 51 57  0  0  0  0  0  0  0  0999 V2000
    4.0900   22.0030   37.6010 C   0  0  0  0  0  0  0  0  0  0  0  0
    0.5750   21.9990   35.1200 C   0  0  0  0  0  0  0  0  0  4  0  0
    1.6060   19.3450   39.6790 O   0  0  0  0  0  0  0  0  0 50  0  0
   -0.7380   20.9900   36.8950 O   0  0  0  0  0  0  0  0  0  5  0  0
   13.6370   19.3460   51.9230 F   0  0  0  0  0  0  0  0  0 41  0  0
   16.0290   17.3110   55.2880 F   0  0  0  0  0  0  0  0  0 38  0  0
   14.8630   18.3370   53.6110 C   0  0  0  0  0  0  0  0  0 39  0  0
    5.8150   17.7360   50.1450 C   0  0  0  0  0  0  0  0  0 43  0  0
    6.4740   20.0630   49.7920 C   0  0  0  0  0  0  0  0  0 20  0  0
    4.7530   17.8710   49.2740 C   0  0  0  0  0  0  0  0  0 44  0  0
    5.3660   20.1980   48.9250 C   0  0  0  0  0  0  0  0  0 19  0  0
    0.9600   18.9330   43.8590 C   0  0  0  0  0  0  0  0  0 47  0  0
    0.8670   21.2010   44.5150 C   0  0  0  0  0  0  0  0  0 12  0  0
    0.8570   19.3380   42.5120 C   0  0  0  0  0  0  0  0  0 48  0  0
    0.7820   21.5810   43.1760 C   0  0  0  0  0  0  0  0  0 11  0  0
   14.8830   17.7590   54.8750 C   0  0  0  0  0  0  0  0  0 37  0  0
   13.0410   23.4560   54.8050 C   0  0  0  0  0  0  0  0  0 32  0  0
   12.4620   18.8700   53.9860 C   0  0  0  0  0  0  0  0  0 34  0  0
   11.6580   21.8100   55.3530 C   0  0  0  0  0  0  0  0  0 30  0  0
    0.4800   22.4970   40.5580 C   0  0  0  0  0  0  0  0  0  8  0  0
    3.0310   21.0110   37.1540 C   0  0  0  0  0  0  0  0  0  1  0  0
   10.8030   18.5470   52.2770 C   0  0  0  0  0  0  0  0  0 42  0  0
    2.3410   20.0210   48.3670 C   0  0  0  0  0  0  0  0  0 45  0  0
    2.9830   18.0730   47.0960 C   0  0  0  0  0  0  0  0  0 16  0  0
    1.6670   20.6420   47.1640 C   0  0  0  0  0  0  0  0  0 46  0  0
    1.5040   18.1890   46.7140 C   0  0  0  0  0  0  0  0  0 15  0  0
    8.8400   18.7930   51.3080 C   0  0  0  0  0  0  0  0  0 23  0  0
   11.3370   20.9190   52.9790 C   0  0  0  0  0  0  0  0  0 28  0  0
   12.3280   22.8560   55.7650 N   0  0  0  0  0  0  0  0  0 31  0  0
   12.7390   22.8160   53.6370 N   0  0  0  0  0  0  0  0  0 33  0  0
    0.7640   22.7060   39.2380 N   0  0  0  0  0  0  0  0  0  7  0  0
    7.5710   18.4450   51.2870 O   0  0  0  0  0  0  0  0  0 22  0  0
   10.1710   19.3470   54.4230 O   0  0  0  0  0  0  0  0  0 26  0  0
   13.6610   18.8640   53.1560 C   0  0  0  0  0  0  0  0  0 40  0  0
   12.5670   18.2900   55.2920 C   0  0  0  0  0  0  0  0  0 35  0  0
    6.6400   18.8060   50.4020 C   0  0  0  0  0  0  0  0  0 21  0  0
    4.5170   19.1190   48.6890 C   0  0  0  0  0  0  0  0  0 18  0  0
    0.9810   19.8670   44.9140 C   0  0  0  0  0  0  0  0  0 13  0  0
    0.7090   20.6790   42.0970 C   0  0  0  0  0  0  0  0  0 10  0  0
   13.8120   17.7440   55.7090 C   0  0  0  0  0  0  0  0  0 36  0  0
    1.2540   20.5860   39.7600 C   0  0  0  0  0  0  0  0  0 49  0  0
    0.5850   21.0640   36.3240 C   0  0  2  0  0  0  0  0  0  3  0  0
    1.6170   21.5930   37.3150 C   0  0  1  0  0  0  0  0  0  2  0  0
    3.4500   19.3020   47.7760 N   0  0  0  0  0  0  0  0  0 17  0  0
    1.0510   19.5610   46.3440 N   0  0  0  0  0  0  0  0  0 14  0  0
   11.8810   21.8080   53.9880 N   0  0  0  0  0  0  0  0  0 29  0  0
    0.7140   21.1750   40.8450 N   0  0  0  0  0  0  0  0  0  9  0  0
    1.2250   21.4750   38.7400 N   0  0  0  0  0  0  0  0  0  6  0  0
   11.2150   19.4730   53.4290 C   0  0  2  0  0  0  0  0  0 27  0  0
    9.0510   18.5760   53.9370 C   0  0  0  0  0  0  0  0  0 25  0  0
    9.4230   18.0780   52.5440 C   0  0  2  0  0  0  0  0  0 24  0  0
 10  8  2  0
 11  9  1  0
 14 12  2  0
 15 13  1  0
 16  7  2  0
 16  6  1  0
 21  1  1  0
 25 23  1  0
 26 24  1  0
 29 19  2  0
 29 17  1  0
 30 17  2  0
 31 20  2  0
 32 27  1  0
 34 18  2  0
 34  7  1  0
 34  5  1  0
 35 18  1  0
 36 32  1  0
 36  9  2  0
 36  8  1  0
 37 11  2  0
 37 10  1  0
 38 13  2  0
 38 12  1  0
 39 15  2  0
 39 14  1  0
 40 35  2  0
 40 16  1  0
 41  3  2  0
 42  4  1  0
 42  2  1  6
 43 42  1  0
 43 21  1  1
 37 44  1  0
 44 24  1  0
 44 23  1  0
 38 45  1  0
 45 26  1  0
 45 25  1  0
 46 28  1  0
 46 30  1  0
 46 19  1  0
 47 41  1  0
 39 47  1  0
 47 20  1  0
 48 43  1  0
 48 41  1  0
 48 31  1  0
 49 33  1  0
 49 22  1  0
 49 28  1  6
 49 18  1  0
 50 33  1  0
 51 50  1  0
 51 27  1  6
 51 22  1  0
M  END
$$$$
