
     RDKit          3D

 32 35  0  0  0  0  0  0  0  0999 V2000
   14.6330   15.7550   17.4570 C   0  0  0  0  0  0  0  0  0 22  0  0
   14.9970   14.9930   16.2740 C   0  0  1  0  0  0  0  0  0 23  0  0
   13.8290   14.3620   15.6090 C   0  0  0  0  0  0  0  0  0 17  0  0
   12.5400   14.5160   16.0730 C   0  0  0  0  0  0  0  0  0 18  0  0
   12.2930   15.2690   17.2080 C   0  0  0  0  0  0  0  0  0 19  0  0
   13.3420   15.8840   17.8870 C   0  0  0  0  0  0  0  0  0 21  0  0
   15.5750   15.9840   15.2410 C   0  0  1  0  0  0  0  0  0 25  0  0
   16.1470   16.4520   12.9250 C   0  0  1  0  0  0  0  0  0 13  0  0
   17.4940   17.0260   13.2650 C   0  0  2  0  0  0  0  0  0 30  0  0
   17.3920   17.6800   14.6450 C   0  0  0  0  0  0  0  0  0 29  0  0
   16.8180   16.7550   15.7150 C   0  0  2  0  0  0  0  0  0 27  0  0
   16.2680   16.0960   11.4550 C   0  0  0  0  0  0  0  0  0 12  0  0
   17.1280   17.2160   10.8880 C   0  0  1  0  0  0  0  0  0 10  0  0
   17.7570   17.9670   12.0790 C   0  0  2  0  0  0  0  0  0  5  0  0
   15.9050   13.8430   16.6720 C   0  0  0  0  0  0  0  0  0 24  0  0
   18.4880   15.8750   13.2610 C   0  0  0  0  0  0  0  0  0 31  0  0
   18.0470   16.7080    9.7780 C   0  0  0  0  0  0  0  0  0 11  0  0
   19.2140   18.3870   11.9190 C   0  0  0  0  0  0  0  0  0  6  0  0
   19.6520   19.8100   12.2350 C   0  0  0  0  0  0  0  0  0  8  0  0
   16.6070   20.0960   11.3090 C   0  0  0  0  0  0  0  0  0  2  0  0
   15.4160   20.9800   11.5670 C   0  0  0  0  0  0  0  0  0  1  0  0
   14.3900   20.1320   12.2400 C   0  0  0  0  0  0  0  0  0  0  0  0
   14.1040   13.5420   14.3850 C   0  0  0  0  0  0  0  0  0 16  0  0
   14.6810   14.4820   13.3440 C   0  0  0  0  0  0  0  0  0 15  0  0
   15.8470   15.3130   13.8880 C   0  0  2  0  0  0  0  0  0 14  0  0
   14.6290   16.9020   15.0270 F   0  0  0  0  0  0  0  0  0 26  0  0
   11.1190   15.4030   17.6270 O   0  0  0  0  0  0  0  0  0 20  0  0
   17.8690   15.8930   16.1760 O   0  0  0  0  0  0  0  0  0 28  0  0
   20.1070   17.6220   11.5500 O   0  0  0  0  0  0  0  0  0  7  0  0
   16.9750   19.1370   12.3360 O   0  0  0  0  0  0  0  0  0  4  0  0
   17.2680   20.1900   10.2770 O   0  0  0  0  0  0  0  0  0  3  0  0
   18.9970   20.4240   13.8030 Cl  0  0  0  0  0  0  0  0  0  9  0  0
  2  1  1  0
  3  2  1  0
  4  3  2  0
  5  4  1  0
  6  5  1  0
  6  1  2  0
  7  2  1  0
  9  8  1  0
 10  9  1  0
 11  7  1  0
 11 10  1  0
  8 12  1  6
 13 12  1  0
 14 13  1  0
 14  9  1  0
  2 15  1  1
  9 16  1  1
 13 17  1  6
 18 14  1  0
 19 18  1  0
 21 20  1  0
 22 21  1  0
 23  3  1  0
 24 23  1  0
 25 24  1  6
 25  7  1  0
 25  8  1  0
  7 26  1  6
 27  5  2  0
 11 28  1  6
 29 18  2  0
 30 20  1  0
 14 30  1  1
 31 20  2  0
 32 19  1  0
M  END
$$$$
