
     RDKit          3D

 11 11  0  0  0  0  0  0  0  0999 V2000
   34.4850   16.1300   88.1030 C   0  0  0  0  0  0  0  0  0  0  0  0
   34.4590   17.3120   87.1200 C   0  0  0  0  0  0  0  0  0  1  0  0
   34.1850   17.0650   85.5770 C   0  0  0  0  0  0  0  0  0  2  0  0
   34.3890   18.1920   84.6820 C   0  0  0  0  0  0  0  0  0  3  0  0
   33.8690   19.5970   85.3310 C   0  0  1  0  0  0  0  0  0  4  0  0
   34.6490   19.8600   86.4590 C   0  0  0  0  0  0  0  0  0  9  0  0
   34.6840   18.6600   87.5910 C   0  0  0  0  0  0  0  0  0 10  0  0
   33.9160   20.7400   84.2630 C   0  0  1  0  0  0  0  0  0  5  0  0
   33.1810   21.9610   84.7980 C   0  0  0  0  0  0  0  0  0  6  0  0
   35.3540   21.1480   83.9430 C   0  0  0  0  0  0  0  0  0  7  0  0
   33.3010   20.3270   83.0450 O   0  0  0  0  0  0  0  0  0  8  0  0
  2  1  1  0
  3  2  2  0
  4  3  1  0
  5  4  1  6
  6  5  1  0
  7  6  1  0
  7  2  1  0
  8  5  1  0
  8  9  1  1
 10  8  1  0
 11  8  1  0
M  END
$$$$
