
     RDKit          3D

 49 55  0  0  0  0  0  0  0  0999 V2000
  -45.3280   84.0380  -22.8400 C   0  0  0  0  0  0  0  0  0  9  0  0
  -46.4890   84.2310  -22.1040 C   0  0  0  0  0  0  0  0  0  8  0  0
  -50.6770   88.9440  -23.5340 C   0  0  0  0  0  0  0  0  0  0  0  0
  -49.3690   89.5010  -22.9900 C   0  0  0  0  0  0  0  0  0  1  0  0
  -48.1100   88.7620  -23.5210 C   0  0  1  0  0  0  0  0  0  2  0  0
  -46.8870   89.6460  -23.3190 C   0  0  0  0  0  0  0  0  0  3  0  0
  -47.9300   87.3960  -22.8610 N   0  0  0  0  0  0  0  0  0  4  0  0
  -46.9620   86.4810  -23.1280 C   0  0  0  0  0  0  0  0  0 47  0  0
  -46.0560   86.5510  -23.9380 O   0  0  0  0  0  0  0  0  0 48  0  0
  -47.2670   85.4380  -22.2570 N   0  0  0  0  0  0  0  0  0  7  0  0
  -48.3850   85.7580  -21.5280 C   0  0  0  0  0  0  0  0  0  6  0  0
  -48.8090   86.9780  -21.8910 N   0  0  0  0  0  0  0  0  0  5  0  0
  -44.5230   82.9380  -22.6000 C   0  0  0  0  0  0  0  0  0 10  0  0
  -44.8630   82.0110  -21.6180 C   0  0  0  0  0  0  0  0  0 11  0  0
  -46.0540   82.1890  -20.9190 C   0  0  0  0  0  0  0  0  0 45  0  0
  -46.8580   83.2890  -21.1580 C   0  0  0  0  0  0  0  0  0 46  0  0
  -43.9770   80.9910  -21.2600 N   0  0  0  0  0  0  0  0  0 12  0  0
  -42.7250   80.7980  -22.0060 C   0  0  0  0  0  0  0  0  0 13  0  0
  -42.6160   79.4160  -22.6390 C   0  0  0  0  0  0  0  0  0 14  0  0
  -42.9770   78.3730  -21.6790 N   0  0  0  0  0  0  0  0  0 15  0  0
  -44.3670   78.5630  -21.2720 C   0  0  0  0  0  0  0  0  0 43  0  0
  -44.5030   79.8490  -20.5020 C   0  0  0  0  0  0  0  0  0 44  0  0
  -42.5470   77.0570  -21.8740 C   0  0  0  0  0  0  0  0  0 16  0  0
  -42.1320   76.6210  -23.1280 C   0  0  0  0  0  0  0  0  0 17  0  0
  -41.6900   75.3230  -23.3170 C   0  0  0  0  0  0  0  0  0 18  0  0
  -41.6580   74.4440  -22.2500 C   0  0  0  0  0  0  0  0  0 19  0  0
  -42.0700   74.8600  -20.9960 C   0  0  0  0  0  0  0  0  0 41  0  0
  -42.5150   76.1570  -20.8130 C   0  0  0  0  0  0  0  0  0 42  0  0
  -41.2160   73.1700  -22.5090 O   0  0  0  0  0  0  0  0  0 20  0  0
  -41.1670   72.2280  -21.4320 C   0  0  0  0  0  0  0  0  0 21  0  0
  -41.2200   70.8330  -22.0040 C   0  0  1  0  0  0  0  0  0 22  0  0
  -41.9030   70.7660  -23.3450 C   0  0  0  0  0  0  0  0  0 23  0  0
  -40.8700   71.0690  -24.2500 O   0  0  0  0  0  0  0  0  0 24  0  0
  -39.6700   70.5220  -23.7170 C   0  0  2  0  0  0  0  0  0 25  0  0
  -39.8960   70.3450  -22.3160 O   0  0  0  0  0  0  0  0  0 40  0  0
  -38.5200   71.5780  -23.8830 C   0  0  0  0  0  0  0  0  0 26  0  0
  -37.2000   71.0080  -23.7100 N   0  0  0  0  0  0  0  0  0 27  0  0
  -36.7760   70.1040  -22.8320 C   0  0  0  0  0  0  0  0  0 28  0  0
  -35.5000   69.8360  -23.0000 N   0  0  0  0  0  0  0  0  0 29  0  0
  -35.1780   70.6400  -24.0320 C   0  0  0  0  0  0  0  0  0 30  0  0
  -36.1610   71.3690  -24.5070 N   0  0  0  0  0  0  0  0  0 31  0  0
  -39.4200   69.2100  -24.4440 C   0  0  0  0  0  0  0  0  0 32  0  0
  -39.4040   69.1150  -25.8390 C   0  0  0  0  0  0  0  0  0 38  0  0
  -39.1320   67.9230  -26.4800 C   0  0  0  0  0  0  0  0  0 37  0  0
  -38.8640   66.8090  -25.7170 C   0  0  0  0  0  0  0  0  0 35  0  0
  -38.8800   66.8560  -24.3450 C   0  0  0  0  0  0  0  0  0 34  0  0
  -39.1610   68.0540  -23.7190 C   0  0  0  0  0  0  0  0  0 33  0  0
  -38.4580   65.3150  -26.5140 Cl  0  0  0  0  0  0  0  0  0 36  0  0
  -39.7140   70.4950  -26.8430 Cl  0  0  0  0  0  0  0  0  0 39  0  0
  2  1  2  0
  4  3  1  0
  5  4  1  0
  5  6  1  1
  7  5  1  0
  8  7  1  0
  9  8  2  0
 10  8  1  0
  2 10  1  0
 11 10  1  0
 12 11  2  0
 12  7  1  0
 13  1  1  0
 14 13  2  0
 15 14  1  0
 16  2  1  0
 16 15  2  0
 14 17  1  0
 18 17  1  0
 19 18  1  0
 20 19  1  0
 21 20  1  0
 22 21  1  0
 22 17  1  0
 23 20  1  0
 24 23  2  0
 25 24  1  0
 26 25  2  0
 27 26  1  0
 28 27  2  0
 28 23  1  0
 29 26  1  0
 30 29  1  0
 31 30  1  6
 32 31  1  0
 33 32  1  0
 34 33  1  0
 35 34  1  0
 35 31  1  0
 34 36  1  1
 37 36  1  0
 38 37  1  0
 39 38  2  0
 40 39  1  0
 41 40  2  0
 41 37  1  0
 42 34  1  0
 43 42  2  0
 44 43  1  0
 45 44  2  0
 46 45  1  0
 47 46  2  0
 47 42  1  0
 48 45  1  0
 49 43  1  0
M  END
$$$$
