
     RDKit          3D

 28 31  0  0  0  0  0  0  0  0999 V2000
   38.5130  -48.9630  -28.8570 C   0  0  0  0  0  0  0  0  0 20  0  0
   37.4890  -48.8960  -29.9820 C   0  0  0  0  0  0  0  0  0 19  0  0
   36.3560  -47.9740  -29.6250 C   0  0  0  0  0  0  0  0  0 17  0  0
   36.6910  -46.8580  -28.7490 C   0  0  0  0  0  0  0  0  0 16  0  0
   37.9320  -46.6100  -28.3010 C   0  0  0  0  0  0  0  0  0 15  0  0
   38.2200  -45.3230  -27.5970 C   0  0  0  0  0  0  0  0  0 14  0  0
   38.9130  -45.5420  -26.2590 C   0  0  0  0  0  0  0  0  0 13  0  0
   40.1660  -46.3920  -26.4190 C   0  0  2  0  0  0  0  0  0 12  0  0
   39.8220  -47.7300  -27.0970 C   0  0  1  0  0  0  0  0  0 23  0  0
   39.0780  -47.5920  -28.4600 C   0  0  1  0  0  0  0  0  0 21  0  0
   41.0630  -48.6300  -27.1640 C   0  0  0  0  0  0  0  0  0 24  0  0
   41.7350  -48.8410  -25.8000 C   0  0  0  0  0  0  0  0  0 25  0  0
   42.1140  -47.5160  -25.1390 C   0  0  1  0  0  0  0  0  0 26  0  0
   40.8190  -46.6820  -25.0760 C   0  0  1  0  0  0  0  0  0 11  0  0
   41.1810  -45.5050  -24.1820 C   0  0  0  0  0  0  0  0  0 10  0  0
   42.0890  -46.1460  -23.1180 C   0  0  0  0  0  0  0  0  0  9  0  0
   42.4890  -47.5620  -23.6280 C   0  0  2  0  0  0  0  0  0  8  0  0
   43.2180  -46.8160  -25.9430 C   0  0  0  0  0  0  0  0  0 27  0  0
   39.9870  -47.0700  -29.5880 C   0  0  0  0  0  0  0  0  0 22  0  0
   43.9150  -47.9570  -23.1950 C   0  0  2  0  0  0  0  0  0  6  0  0
   44.2970  -49.3850  -23.5920 C   0  0  0  0  0  0  0  0  0  7  0  0
   44.1130  -47.8060  -21.6760 C   0  0  0  0  0  0  0  0  0  5  0  0
   45.5600  -47.6920  -21.2010 C   0  0  0  0  0  0  0  0  0  4  0  0
   45.6210  -47.5360  -19.6840 C   0  0  0  0  0  0  0  0  0  3  0  0
   46.8810  -46.9290  -19.0570 C   0  0  1  0  0  0  0  0  0  1  0  0
   47.7250  -48.0180  -18.4040 C   0  0  0  0  0  0  0  0  0  0  0  0
   47.7390  -46.0980  -20.0040 C   0  0  0  0  0  0  0  0  0  2  0  0
   35.2180  -48.1350  -30.0320 O   0  0  0  0  0  0  0  0  0 18  0  0
  1  2  1  1
  2  3  1  1
  4  3  1  0
  5  4  2  0
  6  5  1  6
  7  6  1  6
  8  7  1  1
  9  8  1  0
 10  5  1  1
 10  1  1  0
 10  9  1  0
  9 11  1  6
 11 12  1  1
 12 13  1  6
 14 13  1  0
 14  8  1  0
 14 15  1  6
 15 16  1  6
 17 16  1  6
 13 17  1  0
 13 18  1  6
 19 10  1  6
 20 17  1  0
 20 21  1  1
 22 20  1  0
 22 23  1  6
 23 24  1  6
 24 25  1  6
 25 26  1  6
 27 25  1  6
 28  3  2  0
M  END
$$$$
