
     RDKit          3D

 13 14  0  0  0  0  0  0  0  0999 V2000
   19.2650   39.6180   82.4140 N   0  0  0  0  0  0  0  0  0  3  0  0
   19.0270   42.5700   83.8510 N   0  0  0  0  0  0  0  0  0  0  0  0
   20.1290   38.1340   80.5890 C   0  0  0  0  0  0  0  0  0  5  0  0
   20.9270   38.2480   79.4610 C   0  0  0  0  0  0  0  0  0  6  0  0
   21.6540   37.1640   79.0060 C   0  0  0  0  0  0  0  0  0  7  0  0
   21.5770   35.9520   79.6520 C   0  0  0  0  0  0  0  0  0  8  0  0
   20.7750   35.8220   80.7590 C   0  0  0  0  0  0  0  0  0  9  0  0
   18.0940   41.4690   83.5910 C   0  0  0  0  0  0  0  0  0  1  0  0
   18.5090   40.6580   82.4090 C   0  0  0  0  0  0  0  0  0  2  0  0
   19.3630   39.2810   81.0790 C   0  0  0  0  0  0  0  0  0  4  0  0
   20.0580   36.9080   81.2310 C   0  0  0  0  0  0  0  0  0 10  0  0
   18.6790   40.0470   80.2830 N   0  0  0  0  0  0  0  0  0 11  0  0
   18.0950   40.9770   81.1790 O   0  0  0  0  0  0  0  0  0 12  0  0
  4  3  2  0
  5  4  1  0
  6  5  2  0
  7  6  1  0
  8  2  1  6
  9  8  1  0
  9  1  2  0
 10  3  1  0
 10  1  1  0
 11  7  2  0
 11  3  1  0
 12 10  2  0
 13 12  1  0
 13  9  1  0
M  END
$$$$
