
     RDKit          3D

 13 14  0  0  0  0  0  0  0  0999 V2000
   21.3920   -2.6700  -15.2620 C   0  0  0  0  0  0  0  0  0  0  0  0
   20.4830   -2.8610  -16.2660 C   0  0  0  0  0  0  0  0  0  1  0  0
   21.5770   -3.6390  -14.3140 C   0  0  0  0  0  0  0  0  0 12  0  0
   18.1190   -8.2200  -18.5280 C   0  0  0  0  0  0  0  0  0  9  0  0
   20.3800   -8.4090  -18.2790 C   0  0  0  0  0  0  0  0  0  7  0  0
   19.7520   -4.0360  -16.3470 C   0  0  0  0  0  0  0  0  0  2  0  0
   20.8310   -4.8070  -14.3770 C   0  0  0  0  0  0  0  0  0 11  0  0
   18.0070   -7.4410  -17.3950 C   0  0  0  0  0  0  0  0  0 10  0  0
   20.3660   -7.6380  -17.1410 C   0  0  0  0  0  0  0  0  0  6  0  0
   19.0940   -6.2950  -15.4340 C   0  0  0  0  0  0  0  0  0  4  0  0
   19.2840   -8.6940  -18.9850 N   0  0  0  0  0  0  0  0  0  8  0  0
   19.9160   -5.0250  -15.3920 C   0  0  0  0  0  0  0  0  0  3  0  0
   19.1580   -7.1300  -16.6890 C   0  0  0  0  0  0  0  0  0  5  0  0
  2  1  2  0
  3  1  1  0
  6  2  1  0
  7  3  2  0
  8  4  2  0
  9  5  1  0
 11  5  2  0
 11  4  1  0
 10 12  1  1
 12  7  1  0
 12  6  2  0
 13  9  2  0
 13  8  1  0
 13 10  1  0
M  END
$$$$
