
     RDKit          3D

 30 32  0  0  0  0  0  0  0  0999 V2000
   24.1380   15.2100   21.3710 C   0  0  0  0  0  0  0  0  0  0  0  0
   23.0940   15.6690   20.4690 O   0  0  0  0  0  0  0  0  0  1  0  0
   23.3970   15.1550   19.1840 C   0  0  0  0  0  0  0  0  0  2  0  0
   24.2730   14.1030   18.9030 C   0  0  0  0  0  0  0  0  0  3  0  0
   24.4690   13.6750   17.5630 C   0  0  0  0  0  0  0  0  0  4  0  0
   22.7890   15.7700   18.1060 C   0  0  0  0  0  0  0  0  0 29  0  0
   23.0040   15.3630   16.8120 C   0  0  0  0  0  0  0  0  0 28  0  0
   23.8440   14.3300   16.5210 C   0  0  0  0  0  0  0  0  0  5  0  0
   24.0140   14.0050   15.1600 C   0  0  0  0  0  0  0  0  0  6  0  0
   23.2230   14.3760   14.1120 N   0  0  0  0  0  0  0  0  0 27  0  0
   24.9560   13.2180   14.7070 N   0  0  0  0  0  0  0  0  0  7  0  0
   24.8320   13.1310   13.2920 O   0  0  0  0  0  0  0  0  0  8  0  0
   23.7370   13.8610   12.9900 C   0  0  0  0  0  0  0  0  0  9  0  0
   23.2150   13.9510   11.5990 C   0  0  0  0  0  0  0  0  0 10  0  0
   23.1020   12.6470   10.9170 N   0  0  0  0  0  0  0  0  0 11  0  0
   21.8450   11.9160   11.0010 C   0  0  1  0  0  0  0  0  0 24  0  0
   21.3380   11.8490   12.4890 C   0  0  0  0  0  0  0  0  0 25  0  0
   20.8340   12.5290    9.9980 C   0  0  0  0  0  0  0  0  0 26  0  0
   24.1790   12.2180   10.2670 C   0  0  0  0  0  0  0  0  0 12  0  0
   25.2150   12.9090   10.2200 O   0  0  0  0  0  0  0  0  0 13  0  0
   24.0450   10.9230    9.4750 C   0  0  0  0  0  0  0  0  0 14  0  0
   24.2460    9.7560   10.3510 C   0  0  0  0  0  0  0  0  0 15  0  0
   23.4420    8.6570   10.1070 C   0  0  0  0  0  0  0  0  0 16  0  0
   23.5930    7.5070   10.8790 C   0  0  0  0  0  0  0  0  0 17  0  0
   24.5120    7.4760   11.8740 C   0  0  0  0  0  0  0  0  0 18  0  0
   24.5790    6.3940   12.6480 N   0  0  0  0  0  0  0  0  0 19  0  0
   23.6350    5.5100   12.6770 O   0  0  0  0  0  0  0  0  0 20  0  0
   25.5240    6.2010   13.5830 O   0  0  0  0  0  0  0  0  0 21  0  0
   25.3210    8.5850   12.1440 C   0  0  0  0  0  0  0  0  0 22  0  0
   25.1870    9.7540   11.3750 C   0  0  0  0  0  0  0  0  0 23  0  0
  2  1  1  0
  3  2  1  0
  4  3  2  0
  5  4  1  0
  6  3  1  0
  7  6  2  0
  8  7  1  0
  8  5  2  0
  9  8  1  0
 10  9  1  0
 11  9  2  0
 12 11  1  0
 13 12  1  0
 13 10  2  0
 13 14  1  0
 15 14  1  0
 16 15  1  0
 16 17  1  1
 18 16  1  0
 19 15  1  0
 19 20  2  0
 21 19  1  0
 22 21  1  0
 23 22  2  0
 24 23  1  0
 25 24  2  0
 25 26  1  0
 27 26  2  0
 28 26  1  0
 29 25  1  0
 30 22  1  0
 30 29  2  0
M  CHG  2  26   1  28  -1
M  END
$$$$
