
     RDKit          3D

 22 25  0  0  0  0  0  0  0  0999 V2000
  -18.2290    7.5770  -19.0080 C   0  0  0  0  0  0  0  0  0 17  0  0
  -19.7410    7.5200  -18.9890 C   0  0  1  0  0  0  0  0  0 16  0  0
  -20.1970    6.4530  -19.9340 C   0  0  0  0  0  0  0  0  0 15  0  0
  -19.6610    5.1750  -19.3990 C   0  0  2  0  0  0  0  0  0 14  0  0
  -20.1580    4.9740  -17.9960 C   0  0  0  0  0  0  0  0  0 13  0  0
  -18.1860    5.2670  -19.5470 C   0  0  0  0  0  0  0  0  0 19  0  0
  -20.0460    5.7440  -15.8020 N   0  0  0  0  0  0  0  0  0 11  0  0
  -19.7010    6.4290  -14.6360 C   0  0  0  0  0  0  0  0  0  1  0  0
  -20.2970    5.9630  -13.4420 N   0  0  0  0  0  0  0  0  0  2  0  0
  -20.1060    6.6680  -12.1960 C   0  0  0  0  0  0  0  0  0  3  0  0
  -20.0540    5.7020  -11.0150 C   0  0  0  0  0  0  0  0  0  4  0  0
  -21.2360    4.7470  -10.9990 C   0  0  0  0  0  0  0  0  0  5  0  0
  -22.5420    5.5600  -10.8230 N   0  0  0  0  0  0  0  0  0  6  0  0
  -23.0330    5.8700   -9.5630 C   0  0  0  0  0  0  0  0  0 10  0  0
  -24.0820    6.6530   -9.7240 N   0  0  0  0  0  0  0  0  0  9  0  0
  -24.3300    6.8090  -11.1320 C   0  0  0  0  0  0  0  0  0  8  0  0
  -23.3520    6.0890  -11.7800 C   0  0  0  0  0  0  0  0  0  7  0  0
  -18.9800    7.3460  -14.6420 O   0  0  0  0  0  0  0  0  0  0  0  0
  -19.5320    5.9970  -17.1220 C   0  0  1  0  0  0  0  0  0 12  0  0
  -18.0410    5.8050  -17.2390 C   0  0  0  0  0  0  0  0  0 20  0  0
  -17.5760    6.3000  -18.6170 C   0  0  2  0  0  0  0  0  0 18  0  0
  -20.0750    7.3430  -17.5120 C   0  0  0  0  0  0  0  0  0 21  0  0
  2  1  1  1
  3  2  1  0
  4  3  1  1
  4  5  1  0
  6  4  1  0
  8  7  1  0
  9  8  1  0
 10  9  1  0
 11 10  1  0
 12 11  1  0
 13 12  1  0
 14 13  1  0
 15 14  2  0
 16 15  1  0
 17 16  2  0
 17 13  1  0
 18  8  2  0
 19  5  1  0
 19  7  1  1
 20 19  1  0
 21  6  1  6
 21 20  1  0
 21  1  1  0
 22 19  1  0
 22  2  1  0
M  END
$$$$
