
     RDKit          3D

 36 40  0  0  0  0  0  0  0  0999 V2000
    4.8560   21.0510   90.6280 C   0  0  0  0  0  0  0  0  0 22  0  0
    5.0310   20.9480   89.3100 N   0  0  0  0  0  0  0  0  0 18  0  0
    3.3520   18.4870   90.1180 O   0  0  0  0  0  0  0  0  0 31  0  0
    9.9570   16.9310   90.9840 Cl  0  0  0  0  0  0  0  0  0 27  0  0
    6.2510   22.5930   90.0110 C   0  0  0  0  0  0  0  0  0 20  0  0
    5.5960   22.0540   91.0630 N   0  0  0  0  0  0  0  0  0 21  0  0
    4.0670   17.6840   88.0800 O   0  0  0  0  0  0  0  0  0 15  0  0
    6.9580   18.7130   87.0860 Cl  0  0  0  0  0  0  0  0  0 30  0  0
    5.8870   21.8850   88.9050 C   0  0  0  0  0  0  0  0  0 19  0  0
   -3.0210   18.8650   83.7140 N   0  0  0  0  0  0  0  0  0  6  0  0
    1.1860   17.8960   87.2410 O   0  0  0  0  0  0  0  0  0 11  0  0
    4.4120   19.9910   88.4680 C   0  0  0  0  0  0  0  0  0 17  0  0
   -4.8280   19.3820   81.7160 N   0  0  0  0  0  0  0  0  0  3  0  0
   -5.8300   20.7600   80.2390 O   0  0  0  0  0  0  0  0  0  2  0  0
    4.4080   18.6160   89.1170 C   0  0  1  0  0  0  0  0  0 16  0  0
    2.3250   17.6760   89.4820 C   0  0  2  0  0  0  0  0  0 13  0  0
    3.1120   16.8110   88.5960 C   0  0  0  0  0  0  0  0  0 14  0  0
    5.7530   18.2030   89.6520 C   0  0  0  0  0  0  0  0  0 23  0  0
    6.9610   18.2140   88.7850 C   0  0  0  0  0  0  0  0  0 29  0  0
    8.1430   17.8300   89.2480 C   0  0  0  0  0  0  0  0  0 28  0  0
    8.3000   17.4110   90.5050 C   0  0  0  0  0  0  0  0  0 26  0  0
    7.2090   17.3810   91.3790 C   0  0  0  0  0  0  0  0  0 25  0  0
    5.9230   17.7690   90.9420 C   0  0  0  0  0  0  0  0  0 24  0  0
    1.3460   18.5090   88.5930 C   0  0  0  0  0  0  0  0  0 12  0  0
    0.1220   18.1570   86.4050 C   0  0  0  0  0  0  0  0  0 10  0  0
    0.1780   17.6500   85.1320 C   0  0  0  0  0  0  0  0  0  9  0  0
   -0.8410   17.8710   84.2380 C   0  0  0  0  0  0  0  0  0  8  0  0
   -1.9540   18.6220   84.6120 C   0  0  0  0  0  0  0  0  0  7  0  0
   -2.0250   19.1420   85.9110 C   0  0  0  0  0  0  0  0  0 33  0  0
   -0.9880   18.9110   86.8120 C   0  0  0  0  0  0  0  0  0 32  0  0
   -2.8310   20.0730   82.9250 C   0  0  0  0  0  0  0  0  0  5  0  0
   -4.2050   20.5120   82.4460 C   0  0  0  0  0  0  0  0  0  4  0  0
   -4.7350   17.9770   82.2970 C   0  0  0  0  0  0  0  0  0 35  0  0
   -3.3240   17.7480   82.8060 C   0  0  0  0  0  0  0  0  0 34  0  0
   -5.4870   19.6290   80.5680 C   0  0  0  0  0  0  0  0  0  1  0  0
   -5.7930   18.4450   79.7050 C   0  0  0  0  0  0  0  0  0  0  0  0
  2  1  1  0
  6  1  2  0
  6  5  1  0
  9  2  1  0
  9  5  2  0
 12  2  1  0
 15 12  1  6
 15  7  1  0
 15  3  1  0
 16  3  1  0
 17 16  1  0
 17  7  1  0
 18 15  1  0
 19  8  1  0
 19 18  2  0
 20 19  1  0
 21 20  2  0
 21  4  1  0
 22 21  1  0
 23 22  2  0
 23 18  1  0
 16 24  1  6
 24 11  1  0
 25 11  1  0
 26 25  2  0
 27 26  1  0
 28 27  2  0
 28 10  1  0
 29 28  1  0
 30 29  2  0
 30 25  1  0
 31 10  1  0
 32 13  1  0
 32 31  1  0
 33 13  1  0
 34 33  1  0
 34 10  1  0
 35 14  2  0
 35 13  1  0
 36 35  1  0
M  END
$$$$
