
     RDKit          3D

 20 22  0  0  0  0  0  0  0  0999 V2000
   27.9600    3.7850   51.9140 C   0  0  0  0  0  0  0  0  0  0  0  0
   28.5750    5.1050   52.3720 C   0  0  0  0  0  0  0  0  0  1  0  0
   27.7010    5.2880   54.5350 C   0  0  0  0  0  0  0  0  0  3  0  0
   27.8980    5.7900   55.9640 C   0  0  0  0  0  0  0  0  0  5  0  0
   27.1680    5.4160   57.0920 C   0  0  0  0  0  0  0  0  0  6  0  0
   27.7140    6.1520   58.1830 C   0  0  0  0  0  0  0  0  0  7  0  0
   27.4320    6.2280   59.5740 C   0  0  0  0  0  0  0  0  0  8  0  0
   28.1740    7.0790   60.3940 C   0  0  0  0  0  0  0  0  0  9  0  0
   27.9060    7.1580   61.7570 C   0  0  0  0  0  0  0  0  0 10  0  0
   28.8980    7.5500   62.6430 C   0  0  0  0  0  0  0  0  0 11  0  0
   28.5900    7.6100   63.9940 C   0  0  0  0  0  0  0  0  0 12  0  0
   26.4270    6.9260   63.6140 C   0  0  0  0  0  0  0  0  0 14  0  0
   26.6490    6.8390   62.2490 C   0  0  0  0  0  0  0  0  0 15  0  0
   29.2010    7.8490   59.8430 C   0  0  0  0  0  0  0  0  0 16  0  0
   29.4800    7.7740   58.4840 C   0  0  0  0  0  0  0  0  0 17  0  0
   28.7220    6.9100   57.6490 C   0  0  0  0  0  0  0  0  0 18  0  0
   27.3850    7.3010   64.4410 N   0  0  0  0  0  0  0  0  0 13  0  0
   28.8170    6.6760   56.3140 N   0  0  0  0  0  0  0  0  0 19  0  0
   28.8220    5.0200   53.7450 O   0  0  0  0  0  0  0  0  0  2  0  0
   26.6130    5.1460   54.0860 O   0  0  0  0  0  0  0  0  0  4  0  0
  1  2  1  6
  4  3  1  0
  5  4  2  0
  6  5  1  0
  7  6  2  0
  8  7  1  0
  9  8  1  0
 10  9  2  0
 11 10  1  0
 13 12  2  0
 13  9  1  0
 14  8  2  0
 15 14  1  0
 16 15  2  0
 16  6  1  0
 17 12  1  0
 17 11  2  0
 18 16  1  0
 18  4  1  0
  2 19  1  1
 19  3  1  0
 20  3  2  0
M  END
$$$$
