
     RDKit          3D

 24 26  0  0  0  0  0  0  0  0999 V2000
   20.1360    5.9820   59.7950 C   0  0  0  0  0  0  0  0  0  1  0  0
   22.0250    6.9820   58.3790 C   0  0  0  0  0  0  0  0  0  3  0  0
   23.0600    5.8360   58.2380 C   0  0  0  0  0  0  0  0  0  4  0  0
   23.2340    5.6440   56.0520 C   0  0  0  0  0  0  0  0  0 10  0  0
   24.1010    5.7680   54.7940 C   0  0  0  0  0  0  0  0  0  9  0  0
   25.9240    5.3160   56.1420 C   0  0  0  0  0  0  0  0  0  7  0  0
   25.0650    5.4260   57.4050 C   0  0  0  0  0  0  0  0  0  6  0  0
   19.3330    5.9490   61.1090 C   0  0  0  0  0  0  0  0  0 11  0  0
   19.6420    6.8110   62.1470 C   0  0  0  0  0  0  0  0  0 12  0  0
   18.9230    6.7600   63.3340 C   0  0  0  0  0  0  0  0  0 13  0  0
   17.9000    5.8360   63.4840 C   0  0  0  0  0  0  0  0  0 14  0  0
   17.1470    5.7890   64.8100 C   0  0  0  0  0  0  0  0  0 15  0  0
   15.6880    5.4280   64.6650 C   0  0  0  0  0  0  0  0  0 16  0  0
   15.1580    4.3330   65.3260 C   0  0  0  0  0  0  0  0  0 17  0  0
   13.8100    4.0610   65.1670 C   0  0  0  0  0  0  0  0  0 18  0  0
   13.5360    5.8820   63.7730 C   0  0  0  0  0  0  0  0  0 20  0  0
   14.8630    6.2140   63.8870 C   0  0  0  0  0  0  0  0  0 21  0  0
   17.5910    4.9670   62.4500 C   0  0  0  0  0  0  0  0  0 22  0  0
   18.3120    5.0180   61.2660 C   0  0  0  0  0  0  0  0  0 23  0  0
   21.2320    6.9400   59.6150 N   0  0  0  0  0  0  0  0  0  2  0  0
   23.8390    6.0420   57.2280 N   0  0  0  0  0  0  0  0  0  5  0  0
   13.0550    4.8210   64.4000 N   0  0  0  0  0  0  0  0  0 19  0  0
   19.9000    5.1830   58.9460 O   0  0  0  0  0  0  0  0  0  0  0  0
   25.4260    6.0000   55.0590 O   0  0  0  0  0  0  0  0  0  8  0  0
  3  2  1  0
  5  4  1  0
  7  6  1  0
  8  1  1  0
  9  8  2  0
 10  9  1  0
 11 10  2  0
 12 11  1  1
 13 12  1  0
 14 13  2  0
 15 14  1  0
 17 13  1  0
 17 16  2  0
 18 11  1  0
 19 18  2  0
 19  8  1  0
 20  1  1  0
  2 20  1  6
  7 21  1  6
  4 21  1  6
  3 21  1  1
 22 15  2  0
 22 16  1  0
  1 23  2  0
  6 24  1  1
  5 24  1  1
M  END
$$$$
