
     RDKit          3D

 28 31  0  0  0  0  0  0  0  0999 V2000
   24.3370    6.3070   55.6370 C   0  0  0  0  0  0  0  0  0  0  0  0
   23.9700    5.3150   56.7280 C   0  0  0  0  0  0  0  0  0  1  0  0
   23.1220    6.0160   58.8140 C   0  0  0  0  0  0  0  0  0  3  0  0
   21.9670    6.1030   59.8180 C   0  0  0  0  0  0  0  0  0  5  0  0
   20.6430    5.6920   59.6140 C   0  0  0  0  0  0  0  0  0  6  0  0
   19.9320    5.9430   60.8210 C   0  0  0  0  0  0  0  0  0  7  0  0
   18.5800    5.7600   61.2500 C   0  0  0  0  0  0  0  0  0  8  0  0
   18.2080    6.1170   62.5520 C   0  0  0  0  0  0  0  0  0  9  0  0
   16.9010    5.9660   63.0360 C   0  0  0  0  0  0  0  0  0 10  0  0
   16.6800    5.7840   64.3880 C   0  0  0  0  0  0  0  0  0 11  0  0
   15.3810    5.6360   64.8420 C   0  0  0  0  0  0  0  0  0 12  0  0
   14.5440    5.8330   62.7290 C   0  0  0  0  0  0  0  0  0 14  0  0
   15.8190    5.9930   62.1800 C   0  0  0  0  0  0  0  0  0 15  0  0
   19.1500    6.6580   63.4180 C   0  0  0  0  0  0  0  0  0 16  0  0
   20.4650    6.8360   63.0080 C   0  0  0  0  0  0  0  0  0 17  0  0
   20.8480    6.4720   61.6930 C   0  0  0  0  0  0  0  0  0 18  0  0
   23.2480    7.0880   61.7240 C   0  0  0  0  0  0  0  0  0 20  0  0
   24.2120    6.0610   62.2980 C   0  0  0  0  0  0  0  0  0 21  0  0
   25.7520    5.7530   63.8770 C   0  0  0  0  0  0  0  0  0 27  0  0
   27.0690    6.2260   64.5070 C   0  0  0  0  0  0  0  0  0 26  0  0
   27.4080    7.3400   62.5130 C   0  0  0  0  0  0  0  0  0 24  0  0
   25.9020    7.5230   62.3170 C   0  0  0  0  0  0  0  0  0 23  0  0
   14.3310    5.6780   64.0320 N   0  0  0  0  0  0  0  0  0 13  0  0
   22.0560    6.5420   61.0670 N   0  0  0  0  0  0  0  0  0 19  0  0
   25.0980    6.6380   63.0280 N   0  0  0  0  0  0  0  0  0 22  0  0
   22.8770    5.8260   57.4500 O   0  0  0  0  0  0  0  0  0  2  0  0
   24.2450    6.1330   59.1960 O   0  0  0  0  0  0  0  0  0  4  0  0
   27.7210    7.2740   63.8580 O   0  0  0  0  0  0  0  0  0 25  0  0
  1  2  1  1
  4  3  1  0
  5  4  2  0
  6  5  1  0
  7  6  2  0
  8  7  1  0
  9  8  1  0
 10  9  2  0
 11 10  1  0
 13 12  2  0
 13  9  1  0
 14  8  2  0
 15 14  1  0
 16 15  2  0
 16  6  1  0
 18 17  1  0
 20 19  1  0
 22 21  1  0
 23 12  1  0
 23 11  2  0
 24 16  1  0
 24  4  1  0
 17 24  1  1
 22 25  1  6
 19 25  1  1
 18 25  1  6
  2 26  1  6
 26  3  1  0
 27  3  2  0
 20 28  1  1
 21 28  1  6
M  END
$$$$
