
     RDKit          3D

 14 15  0  0  0  0  0  0  0  0999 V2000
   13.6110    5.7070   63.9740 C   0  0  0  0  0  0  0  0  0 10  0  0
   22.0440    4.2930   65.8210 C   0  0  0  0  0  0  0  0  0  0  0  0
   19.9470    5.1140   64.9990 C   0  0  0  0  0  0  0  0  0  2  0  0
   19.2140    5.8500   64.0660 C   0  0  0  0  0  0  0  0  0  3  0  0
   17.8040    5.8070   64.0540 C   0  0  0  0  0  0  0  0  0  4  0  0
   17.1080    5.0370   64.9740 C   0  0  0  0  0  0  0  0  0  5  0  0
   15.7000    4.9640   64.8890 C   0  0  0  0  0  0  0  0  0  6  0  0
   15.0010    3.9550   65.5460 C   0  0  0  0  0  0  0  0  0  7  0  0
   13.6070    3.9010   65.4080 C   0  0  0  0  0  0  0  0  0  8  0  0
   14.9950    5.8360   64.0710 C   0  0  0  0  0  0  0  0  0 11  0  0
   17.8400    4.2900   65.9010 C   0  0  0  0  0  0  0  0  0 12  0  0
   19.2550    4.3260   65.9240 C   0  0  0  0  0  0  0  0  0 13  0  0
   12.9640    4.7350   64.6050 N   0  0  0  0  0  0  0  0  0  9  0  0
   21.3670    5.1780   64.9720 O   0  0  0  0  0  0  0  0  0  1  0  0
  4  3  2  0
  5  4  1  0
  6  5  2  0
  7  6  1  0
  7  8  2  0
  9  8  1  0
 10  7  1  0
 10  1  2  0
 11  6  1  0
 12  3  1  0
 12 11  2  0
 13  9  2  0
 13  1  1  0
 14  3  1  0
 14  2  1  0
M  END
$$$$
