
     RDKit          3D

 26 29  0  0  0  0  0  0  0  0999 V2000
   -6.5840  -18.0320   34.9190 C   0  0  0  0  0  0  0  0  0  1  0  0
   -6.6730  -17.1760   36.2750 C   0  0  0  0  0  0  0  0  0  3  0  0
   -6.2920  -15.8010   36.3270 C   0  0  0  0  0  0  0  0  0  4  0  0
   -6.5080  -15.3590   37.6810 C   0  0  0  0  0  0  0  0  0  5  0  0
   -6.3140  -14.0970   38.3240 C   0  0  0  0  0  0  0  0  0  6  0  0
   -6.6210  -13.9570   39.6810 C   0  0  0  0  0  0  0  0  0  7  0  0
   -6.4380  -12.7510   40.3040 C   0  0  0  0  0  0  0  0  0  8  0  0
   -6.0090  -11.6540   39.5990 C   0  0  0  0  0  0  0  0  0  9  0  0
   -5.8350  -10.4520   40.2710 C   0  0  0  0  0  0  0  0  0 10  0  0
   -6.5050  -11.4010   42.2550 C   0  0  0  0  0  0  0  0  0 12  0  0
   -6.7020  -12.6310   41.6700 C   0  0  0  0  0  0  0  0  0 13  0  0
   -7.1370  -15.0880   40.4290 C   0  0  0  0  0  0  0  0  0 14  0  0
   -7.3350  -16.3140   39.7980 C   0  0  0  0  0  0  0  0  0 15  0  0
   -7.0120  -16.4680   38.4000 C   0  0  0  0  0  0  0  0  0 16  0  0
   -7.5830  -18.8690   37.9260 C   0  0  0  0  0  0  0  0  0 18  0  0
   -6.6240  -20.0380   37.5460 C   0  0  0  0  0  0  0  0  0 19  0  0
   -6.0140  -22.0960   37.6150 C   0  0  0  0  0  0  0  0  0 21  0  0
   -6.1550  -23.4770   38.3180 C   0  0  0  0  0  0  0  0  0 22  0  0
   -8.1760  -22.7770   39.2370 C   0  0  0  0  0  0  0  0  0 24  0  0
   -8.0700  -21.4360   38.5000 C   0  0  0  0  0  0  0  0  0 25  0  0
   -5.7180  -17.5730   33.8740 N   0  0  0  0  0  0  0  0  0  0  0  0
   -6.0870  -10.3560   41.5720 N   0  0  0  0  0  0  0  0  0 11  0  0
   -7.0940  -17.5490   37.5250 N   0  0  0  0  0  0  0  0  0 17  0  0
   -6.7300  -21.0710   38.2500 N   0  0  0  0  0  0  0  0  0 20  0  0
   -7.4780  -23.8120   38.5500 N   0  0  0  0  0  0  0  0  0 23  0  0
   -7.2360  -19.0050   34.7470 O   0  0  0  0  0  0  0  0  0  2  0  0
  2  1  1  0
  3  2  2  0
  4  3  1  0
  5  4  1  0
  6  5  2  0
  7  6  1  0
  8  7  2  0
  9  8  1  0
 11 10  2  0
 11  7  1  0
 12  6  1  0
 13 12  2  0
 14  4  2  0
 14 13  1  0
 16 15  1  0
 18 17  1  0
 20 19  1  0
 21  1  1  0
 22 10  1  0
 22  9  2  0
 23 15  1  0
 23  2  1  0
 23 14  1  0
 24 17  1  0
 24 16  1  0
 24 20  1  0
 25 19  1  0
 25 18  1  0
 26  1  2  0
M  END
$$$$
