
     RDKit          3D

 16 18  0  0  0  0  0  0  0  0999 V2000
   -6.6480   20.8520    4.3350 C   0  0  0  0  0  0  0  0  0 14  0  0
   -7.2520   21.8160    5.1340 C   0  0  0  0  0  0  0  0  0 15  0  0
   -6.7630   22.0610    6.4120 C   0  0  0  0  0  0  0  0  0  1  0  0
   -7.3380   22.9840    7.1780 N   0  0  0  0  0  0  0  0  0  0  0  0
   -5.6730   21.3420    6.8880 C   0  0  0  0  0  0  0  0  0  2  0  0
   -5.0710   20.3780    6.0880 C   0  0  0  0  0  0  0  0  0  3  0  0
   -5.5590   20.1310    4.8100 C   0  0  0  0  0  0  0  0  0  4  0  0
   -4.9750   19.1990    4.0400 N   0  0  0  0  0  0  0  0  0  5  0  0
   -5.4120   18.9400    2.8190 C   0  0  0  0  0  0  0  0  0  6  0  0
   -6.4980   19.6270    2.2900 C   0  0  0  0  0  0  0  0  0  7  0  0
   -7.1260   20.5980    3.0580 C   0  0  0  0  0  0  0  0  0  8  0  0
   -8.1670   21.2720    2.5780 N   0  0  0  0  0  0  0  0  0  9  0  0
   -8.3360   21.7450    1.3470 C   0  0  0  0  0  0  0  0  0 10  0  0
   -9.5190   22.3460    1.3230 N   0  0  0  0  0  0  0  0  0 11  0  0
  -10.0270   22.2170    2.5430 C   0  0  0  0  0  0  0  0  0 12  0  0
   -9.1450   21.5420    3.2780 N   0  0  0  0  0  0  0  0  0 13  0  0
  2  1  2  0
  3  2  1  0
  4  3  1  0
  5  3  2  0
  6  5  1  0
  7  1  1  0
  7  6  2  0
  8  7  1  0
  9  8  2  0
 10  9  1  0
 11 10  2  0
 11  1  1  0
 12 11  1  0
 13 12  1  0
 14 13  2  0
 15 14  1  0
 16 12  1  0
 16 15  2  0
M  END
$$$$
