
     RDKit          3D

 28 30  0  0  0  0  0  0  0  0999 V2000
   17.5810   -7.5990   16.8660 C   0  0  0  0  0  0  0  0  0 10  0  0
   20.4050   -7.3520   18.5390 C   0  0  0  0  0  0  0  0  0  1  0  0
   20.8760   -8.1960   19.6510 C   0  0  0  0  0  0  0  0  0 18  0  0
   19.9940   -9.0000   20.3480 C   0  0  0  0  0  0  0  0  0 19  0  0
   20.4750   -9.8450   21.3390 C   0  0  0  0  0  0  0  0  0 20  0  0
   22.2300   -8.2530   19.9780 C   0  0  0  0  0  0  0  0  0 27  0  0
   24.2270   -9.1480   21.3310 C   0  0  1  0  0  0  0  0  0 23  0  0
   18.8190   -3.6430   18.7660 C   0  0  0  0  0  0  0  0  0  6  0  0
   19.1830   -3.0250   19.9430 C   0  0  0  0  0  0  0  0  0  7  0  0
   14.9750  -10.3270   14.4000 Cl  0  0  0  0  0  0  0  0  0 14  0  0
   15.9760   -9.2830   15.3420 C   0  0  0  0  0  0  0  0  0 13  0  0
   16.3350   -9.6470   16.6310 C   0  0  0  0  0  0  0  0  0 12  0  0
   17.1300   -8.8050   17.3890 C   0  0  0  0  0  0  0  0  0 11  0  0
   17.1770   -7.2680   15.5660 C   0  0  0  0  0  0  0  0  0 16  0  0
   16.3890   -8.0970   14.7840 C   0  0  0  0  0  0  0  0  0 15  0  0
   17.6730   -5.7720   14.8380 Cl  0  0  0  0  0  0  0  0  0 17  0  0
   18.3900   -6.6420   17.6430 C   0  0  2  0  0  0  0  0  0  3  0  0
   19.0350   -7.3590   18.4760 O   0  0  0  0  0  0  0  0  0  2  0  0
   21.1760   -6.8590   17.7290 O   0  0  0  0  0  0  0  0  0  0  0  0
   21.8420   -9.8950   21.6320 C   0  0  0  0  0  0  0  0  0 21  0  0
   22.7400   -9.0880   20.9670 C   0  0  0  0  0  0  0  0  0 22  0  0
   25.0250   -8.1910   20.7760 F   0  0  0  0  0  0  0  0  0 24  0  0
   24.4540   -9.0230   22.6570 F   0  0  0  0  0  0  0  0  0 25  0  0
   24.8700  -10.3080   21.0380 F   0  0  0  0  0  0  0  0  0 26  0  0
   17.3830   -5.7230   18.2450 C   0  0  0  0  0  0  0  0  0  4  0  0
   18.0240   -4.7040   19.1270 N   0  0  0  0  0  0  0  0  0  5  0  0
   18.6230   -3.6750   21.0370 N   0  0  0  0  0  0  0  0  0  8  0  0
   17.9570   -4.6680   20.4850 C   0  0  0  0  0  0  0  0  0  9  0  0
  3  2  1  0
  3  4  2  0
  5  4  1  0
  6  3  1  0
  9  8  2  0
 11 10  1  0
 12 11  2  0
 13 12  1  0
  1 13  2  0
 14  1  1  0
 15 11  1  0
 15 14  2  0
 16 14  1  0
 17  1  1  0
 18 17  1  0
 18  2  1  0
  2 19  2  0
 20  5  2  0
 21 20  1  0
 21  7  1  0
 21  6  2  0
  7 22  1  6
 23  7  1  0
 24  7  1  0
 17 25  1  1
 26 25  1  0
 26  8  1  0
 27  9  1  0
 28 27  2  0
 28 26  1  0
M  END
$$$$
