
     RDKit          3D

 20 22  0  0  0  0  0  0  0  0999 V2000
  -16.2530   16.1960    4.5210 C   0  0  0  0  0  0  0  0  0  4  0  0
  -17.3300   15.4990    3.9820 C   0  0  0  0  0  0  0  0  0  3  0  0
  -18.6390   15.8790    4.2790 C   0  0  0  0  0  0  0  0  0  2  0  0
  -18.8940   16.9600    5.1250 C   0  0  0  0  0  0  0  0  0  1  0  0
  -17.8350   17.6600    5.6750 C   0  0  0  0  0  0  0  0  0 19  0  0
  -16.5390   17.2600    5.3860 C   0  0  0  0  0  0  0  0  0 18  0  0
  -12.2760   17.8370    3.0990 C   0  0  0  0  0  0  0  0  0  8  0  0
  -12.7350   16.5200    3.2360 C   0  0  0  0  0  0  0  0  0  7  0  0
  -11.0580   18.4110    2.4860 C   0  0  0  0  0  0  0  0  0  9  0  0
   -9.1710   18.3030    1.0090 C   0  0  0  0  0  0  0  0  0 14  0  0
  -10.8040   19.7610    2.7100 C   0  0  0  0  0  0  0  0  0 10  0  0
   -7.8190   20.2440    0.6670 O   0  0  0  0  0  0  0  0  0 13  0  0
  -14.9700   15.7950    4.2350 N   0  0  0  0  0  0  0  0  0  5  0  0
  -20.1720   17.3380    5.4200 O   0  0  0  0  0  0  0  0  0  0  0  0
  -13.9960   16.6470    3.8150 C   0  0  0  0  0  0  0  0  0  6  0  0
  -14.2900   17.9360    4.0020 N   0  0  0  0  0  0  0  0  0 17  0  0
  -13.2200   18.6870    3.5410 N   0  0  0  0  0  0  0  0  0 16  0  0
  -10.2670   17.6840    1.6080 C   0  0  0  0  0  0  0  0  0 15  0  0
   -8.8930   19.6460    1.2580 C   0  0  0  0  0  0  0  0  0 12  0  0
   -9.7120   20.3770    2.1090 C   0  0  0  0  0  0  0  0  0 11  0  0
  2  1  2  0
  3  2  1  0
  4  3  2  0
  5  4  1  0
  6  5  2  0
  6  1  1  0
  7  8  1  0
  9  7  1  0
  9 11  2  0
 13  1  1  0
 14  4  1  0
 15 13  1  0
 15  8  2  0
 16 15  1  0
 17 16  1  0
 17  7  2  0
 18  9  1  0
 18 10  2  0
 19 12  1  0
 19 10  1  0
 20 19  2  0
 20 11  1  0
M  END
$$$$
