
     RDKit          3D

 23 25  0  0  0  0  0  0  0  0999 V2000
   -7.8860   22.5030  271.8130 C   0  0  0  0  0  0  0  0  0  9  0  0
   -6.6090   18.6360  267.0560 C   0  0  0  0  0  0  0  0  0 12  0  0
  -11.0660   18.3920  266.0350 C   0  0  0  0  0  0  0  0  0 16  0  0
  -13.2650   18.1050  267.7320 C   0  0  0  0  0  0  0  0  0 19  0  0
  -13.0020   17.1250  266.8160 C   0  0  0  0  0  0  0  0  0 21  0  0
   -9.2250   21.2910  265.3030 O   0  0  0  0  0  0  0  0  0  0  0  0
   -8.5260   20.5010  265.8680 C   0  0  0  0  0  0  0  0  0  1  0  0
   -7.2810   20.8970  266.7310 C   0  0  0  0  0  0  0  0  0  2  0  0
   -6.8300   19.9160  267.7580 N   0  0  0  0  0  0  0  0  0  3  0  0
   -5.5310   20.3940  268.3160 C   0  0  0  0  0  0  0  0  0  4  0  0
   -5.1420   19.5810  269.5700 C   0  0  0  0  0  0  0  0  0  5  0  0
   -6.2550   19.5100  270.5820 C   0  0  0  0  0  0  0  0  0  6  0  0
   -6.6570   20.7810  271.0780 N   0  0  0  0  0  0  0  0  0  7  0  0
   -7.9640   21.1570  271.3660 C   0  0  0  0  0  0  0  0  0  8  0  0
   -6.6620   22.9160  271.8190 N   0  0  0  0  0  0  0  0  0 10  0  0
   -5.9270   21.8660  271.3750 C   0  0  0  0  0  0  0  0  0 11  0  0
   -7.8780   18.0940  266.5580 C   0  0  0  0  0  0  0  0  0 13  0  0
   -8.7490   19.0260  265.8300 N   0  0  0  0  0  0  0  0  0 14  0  0
   -9.8950   18.5620  265.1350 C   0  0  0  0  0  0  0  0  0 15  0  0
  -11.3990   19.3460  267.0260 C   0  0  0  0  0  0  0  0  0 17  0  0
  -12.4680   19.2050  267.8510 C   0  0  0  0  0  0  0  0  0 18  0  0
  -14.6470   17.9500  268.7250 Cl  0  0  0  0  0  0  0  0  0 20  0  0
  -11.8970   17.2880  265.9720 C   0  0  0  0  0  0  0  0  0 22  0  0
  5  4  2  0
  7  6  2  0
  8  7  1  0
  9  8  1  0
  9  2  1  0
 10  9  1  0
 11 10  1  0
 12 11  1  0
 13 12  1  0
 14 13  1  0
 14  1  2  0
 15  1  1  0
 16 13  1  0
 16 15  2  0
 17  2  1  0
 18 17  1  0
 18  7  1  0
 19  3  1  0
 19 18  1  0
 20  3  1  0
 21 20  2  0
 21  4  1  0
 22  4  1  0
 23  5  1  0
 23  3  2  0
M  END
$$$$
