
     RDKit          3D

 26 28  0  0  0  0  0  0  0  0999 V2000
   -9.8640   14.3260    4.1890 C   0  0  0  0  0  0  0  0  0  0  0  0
  -10.8390   15.4700    3.9610 C   0  0  0  0  0  0  0  0  0  1  0  0
  -12.1630   15.1760    4.1350 C   0  0  0  0  0  0  0  0  0  2  0  0
  -13.1160   16.1560    3.9220 C   0  0  0  0  0  0  0  0  0  3  0  0
  -12.7970   17.4450    3.6080 C   0  0  0  0  0  0  0  0  0  5  0  0
  -11.4570   17.7260    3.4660 C   0  0  0  0  0  0  0  0  0  6  0  0
  -11.1340   19.1460    3.0960 C   0  0  0  0  0  0  0  0  0  7  0  0
  -10.4570   16.7750    3.6420 C   0  0  0  0  0  0  0  0  0  8  0  0
   -8.9870   17.1780    3.3800 C   0  0  0  0  0  0  0  0  0  9  0  0
   -7.8760   16.9220    4.4140 C   0  0  1  0  0  0  0  0  0 10  0  0
   -7.0080   18.8470    5.8060 C   0  0  0  0  0  0  0  0  0 12  0  0
   -5.6730   18.7830    5.0990 C   0  0  2  0  0  0  0  0  0 14  0  0
   -5.5510   20.1380    4.4080 C   0  0  0  0  0  0  0  0  0 15  0  0
   -6.4460   20.1860    3.1550 C   0  0  0  0  0  0  0  0  0 16  0  0
   -7.6190   20.8200    3.4570 C   0  0  0  0  0  0  0  0  0 17  0  0
   -8.5600   21.0140    2.4930 C   0  0  0  0  0  0  0  0  0 18  0  0
   -8.3520   20.5940    1.2050 C   0  0  0  0  0  0  0  0  0 19  0  0
   -7.1630   19.9530    0.8220 C   0  0  0  0  0  0  0  0  0 21  0  0
   -6.1830   19.7510    1.8320 C   0  0  0  0  0  0  0  0  0 22  0  0
   -6.4910   16.8050    3.7210 C   0  0  0  0  0  0  0  0  0 24  0  0
   -8.0670   17.9420    5.4330 N   0  0  0  0  0  0  0  0  0 11  0  0
   -5.4470   17.7560    4.0890 N   0  0  0  0  0  0  0  0  0 23  0  0
  -14.4450   15.8610    4.0520 O   0  0  0  0  0  0  0  0  0  4  0  0
   -7.1730   19.6380    6.6570 O   0  0  0  0  0  0  0  0  0 13  0  0
   -9.4460   20.8880    0.4230 O   0  0  0  0  0  0  0  0  0 20  0  0
   -6.2500   15.9780    2.8950 O   0  0  0  0  0  0  0  0  0 25  0  0
  2  1  1  0
  3  2  2  0
  4  3  1  0
  5  4  2  0
  6  5  1  0
  7  6  1  0
  8  6  2  0
  8  2  1  0
  8  9  1  0
 10  9  1  6
 12 11  1  0
 12 13  1  6
 14 13  1  0
 15 14  2  0
 16 15  1  0
 17 16  2  0
 18 17  1  0
 19 18  2  0
 19 14  1  0
 20 10  1  0
 21 10  1  0
 21 11  1  0
 22 20  1  0
 22 12  1  0
 23  4  1  0
 24 11  2  0
 25 17  1  0
 26 20  2  0
M  END
$$$$
