
     RDKit          3D

 21 23  0  0  0  0  0  0  0  0999 V2000
  -11.0920   18.1060    3.6340 C   0  0  0  0  0  0  0  0  0  8  0  0
   -8.5850   18.4360    3.8680 C   0  0  0  0  0  0  0  0  0 10  0  0
   -7.1800   20.2200    6.0170 C   0  0  0  0  0  0  0  0  0 16  0  0
  -17.3750   14.4110    4.1220 C   0  0  0  0  0  0  0  0  0  1  0  0
  -17.3150   15.7630    4.5640 C   0  0  0  0  0  0  0  0  0  2  0  0
  -16.1150   16.4840    4.4760 C   0  0  0  0  0  0  0  0  0  3  0  0
  -14.8910   15.9100    3.9480 C   0  0  0  0  0  0  0  0  0  4  0  0
  -15.0090   14.5770    3.5250 C   0  0  0  0  0  0  0  0  0 19  0  0
  -16.1850   13.8370    3.6070 C   0  0  0  0  0  0  0  0  0 20  0  0
  -13.6190   16.6030    3.8430 C   0  0  0  0  0  0  0  0  0  5  0  0
  -13.5610   17.9930    3.7140 C   0  0  0  0  0  0  0  0  0  6  0  0
  -12.3480   18.7250    3.6020 C   0  0  0  0  0  0  0  0  0  7  0  0
  -11.1350   16.6960    3.7740 C   0  0  0  0  0  0  0  0  0 17  0  0
  -12.3320   15.9870    3.8840 C   0  0  0  0  0  0  0  0  0 18  0  0
   -9.8110   18.8460    3.5180 C   0  0  0  0  0  0  0  0  0  9  0  0
   -7.4100   19.3290    3.6570 C   0  0  0  0  0  0  0  0  0 11  0  0
   -5.2830   19.6070    5.0180 C   0  0  0  0  0  0  0  0  0 13  0  0
   -5.0210   20.0810    6.2960 C   0  0  0  0  0  0  0  0  0 14  0  0
  -18.4580   13.7160    4.2020 F   0  0  0  0  0  0  0  0  0  0  0  0
   -6.6610   19.6980    4.8360 N   0  0  0  0  0  0  0  0  0 12  0  0
   -6.2070   20.4640    6.9120 N   0  0  0  0  0  0  0  0  0 15  0  0
  5  4  2  0
  6  5  1  0
  7  6  2  0
  8  7  1  0
  9  4  1  0
  9  8  2  0
 10  7  1  0
 11 10  2  0
 12 11  1  0
 12  1  2  0
 13  1  1  0
 14 13  2  0
 14 10  1  0
 15  1  1  0
 15  2  2  3
 16  2  1  0
 18 17  2  0
 19  4  1  0
 16 20  1  6
 20  3  1  0
 20 17  1  0
 21  3  2  0
 21 18  1  0
M  END
$$$$
