
     RDKit          3D

 22 24  0  0  0  0  0  0  0  0999 V2000
  -10.9390   16.4230    4.0080 C   0  0  0  0  0  0  0  0  0 19  0  0
   -7.5390   18.0560    3.6440 C   0  0  0  0  0  0  0  0  0 12  0  0
   -7.1090   18.5870    6.0190 C   0  0  0  0  0  0  0  0  0 14  0  0
  -11.2930   18.7580    3.5330 C   0  0  0  0  0  0  0  0  0  9  0  0
  -14.1660   18.2020    4.3090 C   0  0  0  0  0  0  0  0  0  6  0  0
  -15.5170   17.9300    4.4710 C   0  0  0  0  0  0  0  0  0  5  0  0
  -17.4920   16.3100    4.4140 C   0  0  1  0  0  0  0  0  0  1  0  0
  -16.0090   16.6590    4.2320 C   0  0  0  0  0  0  0  0  0  4  0  0
  -15.1310   15.6740    3.8350 C   0  0  0  0  0  0  0  0  0 21  0  0
  -13.7870   15.9350    3.6930 C   0  0  0  0  0  0  0  0  0 20  0  0
  -13.2990   17.2090    3.8950 C   0  0  0  0  0  0  0  0  0  7  0  0
  -11.8030   17.4870    3.7700 C   0  0  0  0  0  0  0  0  0  8  0  0
   -9.5680   16.6100    3.9560 C   0  0  0  0  0  0  0  0  0 18  0  0
   -9.0550   17.8700    3.6900 C   0  0  0  0  0  0  0  0  0 11  0  0
   -6.6200   19.6560    6.7040 C   0  0  0  0  0  0  0  0  0 15  0  0
   -6.6140   20.1430    4.6250 C   0  0  0  0  0  0  0  0  0 17  0  0
   -9.9150   18.9430    3.4790 C   0  0  0  0  0  0  0  0  0 10  0  0
  -17.6420   14.9660    4.5840 F   0  0  0  0  0  0  0  0  0  0  0  0
  -17.9340   16.9260    5.5470 F   0  0  0  0  0  0  0  0  0  2  0  0
  -18.2670   16.6700    3.3580 F   0  0  0  0  0  0  0  0  0  3  0  0
   -7.1020   18.9020    4.7480 N   0  0  0  0  0  0  0  0  0 13  0  0
   -6.3150   20.6000    5.8500 N   0  0  0  0  0  0  0  0  0 16  0  0
  6  5  2  0
  8  7  1  0
  8  6  1  0
  9  8  2  0
 10  9  1  0
 11 10  2  0
 11  5  1  0
 12 11  1  0
 12  4  1  0
 12  1  2  0
 13  1  1  0
 14 13  2  0
 14  2  1  0
 15  3  2  0
 17  4  2  0
 17 14  1  0
  7 18  1  1
 19  7  1  0
 20  7  1  0
 21 16  1  0
  2 21  1  6
 21  3  1  0
 22 16  2  0
 22 15  1  0
M  END
$$$$
