
     RDKit          3D

 17 19  0  0  0  0  0  0  0  0999 V2000
  -14.0860   16.3790    4.2830 N   0  0  0  0  0  0  0  0  0 10  0  0
  -10.1180   17.5940    3.3890 C   0  0  0  0  0  0  0  0  0  6  0  0
  -11.5430   17.2150    3.7020 C   0  0  0  0  0  0  0  0  0  7  0  0
  -11.7740   15.9190    3.9460 N   0  0  0  0  0  0  0  0  0 12  0  0
  -12.5710   18.1320    3.7320 C   0  0  0  0  0  0  0  0  0  8  0  0
   -4.7710   16.0030    2.8610 C   0  0  0  0  0  0  0  0  0  0  0  0
   -8.3600   17.7070    1.5510 C   0  0  0  0  0  0  0  0  0  4  0  0
   -9.8130   17.5400    1.8750 C   0  0  0  0  0  0  0  0  0  5  0  0
   -6.4400   18.4320    0.6440 N   0  0  0  0  0  0  0  0  0 14  0  0
   -7.2660   16.9900    2.1490 C   0  0  0  0  0  0  0  0  0  3  0  0
   -7.1710   15.9880    3.1220 C   0  0  0  0  0  0  0  0  0  2  0  0
   -5.9270   15.5100    3.4650 C   0  0  0  0  0  0  0  0  0  1  0  0
  -13.8340   17.6680    4.0290 C   0  0  0  0  0  0  0  0  0  9  0  0
  -13.0310   15.5750    4.2250 C   0  0  0  0  0  0  0  0  0 11  0  0
   -7.8020   18.5680    0.6510 C   0  0  0  0  0  0  0  0  0 13  0  0
   -6.0820   17.4710    1.5520 C   0  0  0  0  0  0  0  0  0 15  0  0
   -4.8230   16.9860    1.9000 C   0  0  0  0  0  0  0  0  0 16  0  0
  2  3  1  6
  4  3  1  0
  5  3  2  0
  8  7  1  1
  8  2  1  0
 10  7  1  0
 11 10  2  0
 12 11  1  0
 12  6  2  0
 13  5  1  0
 13  1  2  0
 14  4  2  0
 14  1  1  0
 15  9  1  0
 15  7  2  0
 16 10  1  0
 16  9  1  0
 17 16  2  0
 17  6  1  0
M  END
$$$$
