
     RDKit          3D

 23 26  0  0  0  0  0  0  0  0999 V2000
   -9.3460   16.8900    2.5590 N   0  0  0  0  0  0  0  0  0 10  0  0
  -16.9800   13.4050    3.1920 C   0  0  0  0  0  0  0  0  0  1  0  0
  -11.5410   17.6590    3.1290 N   0  0  0  0  0  0  0  0  0 18  0  0
  -16.3320   15.6410    3.7750 C   0  0  0  0  0  0  0  0  0  3  0  0
  -17.6380   17.0680    4.9160 N   0  0  0  0  0  0  0  0  0 20  0  0
  -15.6160   16.8760    3.9690 C   0  0  0  0  0  0  0  0  0  4  0  0
  -14.2320   17.1870    3.5140 C   0  0  0  0  0  0  0  0  0  5  0  0
  -18.2390   13.5990    3.7980 C   0  0  0  0  0  0  0  0  0  0  0  0
   -9.6760   15.6990    3.0720 C   0  0  0  0  0  0  0  0  0  9  0  0
  -10.3020   17.8380    2.6190 C   0  0  0  0  0  0  0  0  0 11  0  0
   -8.8280   19.2610    1.2750 C   0  0  0  0  0  0  0  0  0 17  0  0
   -8.3820   20.6860    1.2370 C   0  0  0  0  0  0  0  0  0 16  0  0
  -10.2890   21.4740    2.1770 C   0  0  0  0  0  0  0  0  0 14  0  0
  -10.9610   20.1460    2.2390 C   0  0  0  0  0  0  0  0  0 13  0  0
  -16.4610   17.7070    4.6370 C   0  0  0  0  0  0  0  0  0 19  0  0
  -17.6230   15.8290    4.3250 C   0  0  0  0  0  0  0  0  0 21  0  0
  -18.6120   14.8410    4.3050 C   0  0  0  0  0  0  0  0  0 22  0  0
  -16.0050   14.3900    3.2050 C   0  0  0  0  0  0  0  0  0  2  0  0
  -13.2230   16.2180    4.1260 C   0  0  0  0  0  0  0  0  0  6  0  0
  -11.8410   16.4380    3.6050 C   0  0  0  0  0  0  0  0  0  7  0  0
  -10.9150   15.4270    3.5890 C   0  0  0  0  0  0  0  0  0  8  0  0
  -10.0050   19.0540    2.1170 N   0  0  0  0  0  0  0  0  0 12  0  0
   -9.4720   21.5510    1.0220 O   0  0  0  0  0  0  0  0  0 15  0  0
  6  4  1  0
  7  6  1  1
  8  2  2  0
  9  1  2  0
 10  3  2  0
 10  1  1  0
 12 11  1  0
 14 13  1  0
 15  5  1  0
 15  6  2  0
 16  5  1  0
 16  4  1  0
 16 17  2  0
 17  8  1  0
 18  2  1  0
 18  4  2  0
 19  7  1  0
 19 20  1  6
 20  3  1  0
 21 20  2  0
 21  9  1  0
 14 22  1  1
 11 22  1  6
 22 10  1  0
 13 23  1  1
 12 23  1  1
M  END
$$$$
