
     RDKit          3D

 24 27  0  0  0  0  0  0  0  0999 V2000
   -9.2790   15.6890    0.7990 C   0  0  0  0  0  0  0  0  0  8  0  0
   -7.0240   16.2630    1.8670 C   0  0  0  0  0  0  0  0  0 10  0  0
  -12.0960   16.7560    2.9770 N   0  0  0  0  0  0  0  0  0  5  0  0
  -11.0870   20.2950    2.8400 C   0  0  0  0  0  0  0  0  0  2  0  0
   -5.2190   18.2360    2.4790 N   0  0  0  0  0  0  0  0  0 13  0  0
   -5.8320   16.3320    1.1840 C   0  0  0  0  0  0  0  0  0 11  0  0
  -11.5220   17.9790    2.7520 C   0  0  0  0  0  0  0  0  0  4  0  0
   -6.6920   19.0530    4.0540 N   0  0  0  0  0  0  0  0  0 15  0  0
  -10.3130   16.3610    1.6520 C   0  0  0  0  0  0  0  0  0  7  0  0
   -9.9930   20.0770    2.0030 C   0  0  0  0  0  0  0  0  0  1  0  0
   -4.9590   17.3370    1.5230 C   0  0  0  0  0  0  0  0  0 12  0  0
   -6.4120   18.1320    3.1000 C   0  0  0  0  0  0  0  0  0 14  0  0
   -7.9240   19.0920    4.8290 C   0  0  0  0  0  0  0  0  0 16  0  0
   -7.6060   19.1770    6.3010 C   0  0  0  0  0  0  0  0  0 17  0  0
   -5.5140   20.0720    5.9070 C   0  0  0  0  0  0  0  0  0 19  0  0
   -5.7590   20.1070    4.4270 C   0  0  0  0  0  0  0  0  0 20  0  0
  -10.3930   17.7640    1.9270 C   0  0  0  0  0  0  0  0  0 22  0  0
   -9.6150   18.8510    1.5390 C   0  0  0  0  0  0  0  0  0 23  0  0
  -11.8660   19.2370    3.2400 C   0  0  0  0  0  0  0  0  0  3  0  0
  -11.3620   15.7980    2.3200 C   0  0  0  0  0  0  0  0  0  6  0  0
   -8.0410   15.1860    1.5780 C   0  0  0  0  0  0  0  0  0  9  0  0
   -7.3250   17.1650    2.8210 N   0  0  0  0  0  0  0  0  0 21  0  0
   -6.7320   20.2500    6.6170 O   0  0  0  0  0  0  0  0  0 18  0  0
   -8.9140   21.5490    1.4890 Br  0  0  0  0  0  0  0  0  0  0  0  0
  6  2  2  0
  7  3  1  0
  1  9  1  6
 10  4  1  0
 11  6  1  0
 11  5  2  0
 12  8  1  0
 12  5  1  0
 13  8  1  1
 14 13  1  0
 16  8  1  1
 16 15  1  0
 17  7  2  0
 17  9  1  0
 18 17  1  0
 18 10  2  0
 19  7  1  0
 19  4  2  0
 20  3  1  0
 20  9  2  0
 21  2  1  6
 21  1  1  0
 22  2  1  0
 22 12  2  0
 15 23  1  6
 14 23  1  6
 24 10  1  0
M  END
$$$$
