
     RDKit          3D

 11 12  0  0  0  0  0  0  0  0999 V2000
  -15.2350   -3.0390   65.0420 N   0  0  0  0  0  0  0  0  0  8  0  0
  -15.4300   -3.9170   63.9790 C   0  0  0  0  0  0  0  0  0  7  0  0
  -16.3410   -4.6900   64.2730 N   0  0  0  0  0  0  0  0  0  6  0  0
  -16.8060   -4.4170   65.4790 C   0  0  0  0  0  0  0  0  0  5  0  0
  -16.1270   -3.3830   65.9860 C   0  0  0  0  0  0  0  0  0  4  0  0
  -16.2610   -2.6770   67.3150 C   0  0  0  0  0  0  0  0  0  3  0  0
  -15.9760   -1.2740   67.3780 C   0  0  0  0  0  0  0  0  0  2  0  0
  -16.1070   -0.5960   68.6510 C   0  0  0  0  0  0  0  0  0  1  0  0
  -16.5130   -1.3420   69.7850 C   0  0  0  0  0  0  0  0  0  0  0  0
  -16.7950   -2.7320   69.7140 C   0  0  0  0  0  0  0  0  0 10  0  0
  -16.6550   -3.3720   68.4430 C   0  0  0  0  0  0  0  0  0  9  0  0
  2  1  1  0
  3  2  2  0
  4  3  1  0
  5  4  2  0
  5  1  1  0
  6  5  1  0
  7  6  2  0
  8  7  1  0
  9  8  2  0
 10  9  1  0
 11 10  2  0
 11  6  1  0
M  END
$$$$
