
     RDKit          3D

 16 17  0  0  0  0  0  0  0  0999 V2000
   14.7920   41.9570   38.1310 C   0  0  0  0  0  0  0  0  0  4  0  0
   16.1580   42.3380   37.9820 C   0  0  0  0  0  0  0  0  0  3  0  0
   16.7750   40.9470   39.9230 C   0  0  0  0  0  0  0  0  0  8  0  0
   15.4160   40.5670   40.0720 C   0  0  0  0  0  0  0  0  0  7  0  0
   14.4420   41.0780   39.1740 C   0  0  0  0  0  0  0  0  0  5  0  0
   17.1480   41.8280   38.8850 C   0  0  0  0  0  0  0  0  0  2  0  0
   19.4660   41.3300   39.0180 O   0  0  0  0  0  0  0  0  0  0  0  0
   18.6250   42.2070   38.7660 C   0  0  0  0  0  0  0  0  0  1  0  0
   19.1350   43.5960   38.3670 C   0  0  0  0  0  0  0  0  0  9  0  0
   18.3840   44.7850   38.6540 C   0  0  0  0  0  0  0  0  0 10  0  0
   18.8880   46.0390   38.2720 C   0  0  0  0  0  0  0  0  0 11  0  0
   20.1330   46.1370   37.6060 C   0  0  0  0  0  0  0  0  0 12  0  0
   20.8860   44.9890   37.3170 C   0  0  0  0  0  0  0  0  0 14  0  0
   20.3940   43.7090   37.6940 C   0  0  0  0  0  0  0  0  0 15  0  0
   13.1570   40.7090   39.3290 O   0  0  0  0  0  0  0  0  0  6  0  0
   20.6020   47.3630   37.2450 O   0  0  0  0  0  0  0  0  0 13  0  0
  2  1  2  0
  4  3  1  0
  5  1  1  0
  5  4  2  0
  6  2  1  0
  6  3  2  0
  8  7  2  0
  8  6  1  0
  9  8  1  0
 10  9  2  0
 11 10  1  0
 12 11  2  0
 13 12  1  0
 14  9  1  0
 14 13  2  0
 15  5  1  0
 16 12  1  0
M  END
$$$$
