
     RDKit          3D

 11 11  0  0  0  0  0  0  0  0999 V2000
   -1.4470   14.1700    9.8610 C   0  0  0  0  0  0  0  0  0  0  0  0
   -1.5070   13.5500    8.5880 O   0  0  0  0  0  0  0  0  0  1  0  0
   -0.4900   13.7300    7.6730 C   0  0  0  0  0  0  0  0  0  2  0  0
    0.6960   14.4090    7.8930 C   0  0  0  0  0  0  0  0  0  3  0  0
    1.6660   14.4420    6.9060 C   0  0  0  0  0  0  0  0  0  4  0  0
    1.4440   13.8250    5.6610 C   0  0  0  0  0  0  0  0  0  5  0  0
    0.2400   13.1690    5.4250 C   0  0  0  0  0  0  0  0  0  9  0  0
   -0.7040   13.1060    6.4390 C   0  0  0  0  0  0  0  0  0 10  0  0
    2.4360   13.9760    4.5740 C   0  0  0  0  0  0  0  0  0  6  0  0
    3.4310   14.6470    4.8270 O   0  0  0  0  0  0  0  0  0  7  0  0
    2.1290   13.5640    3.4440 O   0  0  0  0  0  0  0  0  0  8  0  0
  1  2  1  1
  3  2  1  0
  4  3  2  0
  5  4  1  0
  6  5  2  0
  7  6  1  0
  8  7  2  0
  8  3  1  0
  9  6  1  0
  9 10  2  0
 11  9  1  0
M  END
$$$$
