
     RDKit          3D

 11 11  0  0  0  0  0  0  0  0999 V2000
    2.8930   13.5650    4.0810 O   0  0  0  0  0  0  0  0  0  7  0  0
    3.3290   13.8910    5.2040 C   0  0  0  0  0  0  0  0  0  6  0  0
    4.5520   14.2720    5.4290 O   0  0  0  0  0  0  0  0  0  8  0  0
    2.3550   13.8230    6.3770 C   0  0  0  0  0  0  0  0  0  5  0  0
    2.7360   14.2890    7.6300 C   0  0  0  0  0  0  0  0  0  4  0  0
    1.8620   14.2290    8.7090 C   0  0  0  0  0  0  0  0  0  3  0  0
    0.6010   13.6640    8.5790 C   0  0  0  0  0  0  0  0  0  2  0  0
   -0.3500   13.6470    9.7600 C   0  0  0  0  0  0  0  0  0  1  0  0
   -0.9520   15.0480    9.9580 C   0  0  0  0  0  0  0  0  0  0  0  0
    0.2130   13.2210    7.3120 C   0  0  0  0  0  0  0  0  0 10  0  0
    1.0720   13.2910    6.2210 C   0  0  0  0  0  0  0  0  0  9  0  0
  2  1  2  0
  3  2  1  0
  4  2  1  0
  5  4  2  0
  6  5  1  0
  7  6  2  0
  8  7  1  6
  9  8  1  1
 10  7  1  0
 11 10  2  0
 11  4  1  0
M  END
$$$$
