
     RDKit          3D

 13 13  0  0  0  0  0  0  0  0999 V2000
   -7.0980    2.4970    8.9420 O   0  0  0  0  0  0  0  0  0  7  0  0
   -7.5610    2.7260    7.7900 C   0  0  0  0  0  0  0  0  0  6  0  0
   -8.7750    2.7030    7.4910 O   0  0  0  0  0  0  0  0  0  8  0  0
   -6.5600    2.8440    6.6750 C   0  0  0  0  0  0  0  0  0  5  0  0
   -6.9680    3.1480    5.3650 C   0  0  0  0  0  0  0  0  0  9  0  0
   -6.0340    3.2210    4.3440 C   0  0  0  0  0  0  0  0  0 10  0  0
   -6.2990    3.5370    3.0300 O   0  0  0  0  0  0  0  0  0 11  0  0
   -7.6490    3.7190    2.6190 C   0  0  0  0  0  0  0  0  0 12  0  0
   -4.6680    2.9960    4.6440 C   0  0  0  0  0  0  0  0  0  2  0  0
   -3.8190    3.0500    3.5860 O   0  0  0  0  0  0  0  0  0  1  0  0
   -2.4950    2.5760    3.8020 C   0  0  0  0  0  0  0  0  0  0  0  0
   -4.2780    2.6660    5.9360 C   0  0  0  0  0  0  0  0  0  3  0  0
   -5.2260    2.5890    6.9430 C   0  0  0  0  0  0  0  0  0  4  0  0
  2  1  2  0
  3  2  1  0
  4  2  1  0
  4  5  2  0
  6  5  1  0
  7  6  1  0
  8  7  1  1
  9  6  2  0
  9 10  1  0
 11 10  1  1
 12  9  1  0
 13  4  1  0
 13 12  2  0
M  END
$$$$
