
     RDKit          3D

 22 23  0  0  0  0  0  0  0  0999 V2000
   48.3360   85.0910  129.1640 C   0  0  2  0  0  0  0  0  0  3  0  0
   48.7390   86.5210  128.8250 C   0  0  0  0  0  0  0  0  0  5  0  0
   49.1210   86.7900  127.6900 O   0  0  0  0  0  0  0  0  0  6  0  0
   46.9940   84.6860  128.5360 C   0  0  2  0  0  0  0  0  0  1  0  0
   47.0640   84.7460  127.0180 C   0  0  0  0  0  0  0  0  0  0  0  0
   45.8690   85.5680  129.0510 C   0  0  0  0  0  0  0  0  0  2  0  0
   43.0660   90.3920  130.1490 C   0  0  0  0  0  0  0  0  0 18  0  0
   42.4000   90.0320  128.9780 C   0  0  0  0  0  0  0  0  0 17  0  0
   43.0790   89.5340  127.8880 C   0  0  0  0  0  0  0  0  0 16  0  0
   44.4600   89.4000  127.9920 C   0  0  0  0  0  0  0  0  0 15  0  0
   45.1580   89.7550  129.1650 C   0  0  0  0  0  0  0  0  0 21  0  0
   44.4350   90.2590  130.2510 C   0  0  0  0  0  0  0  0  0 19  0  0
   46.6280   88.9990  127.6520 C   0  0  0  0  0  0  0  0  0 13  0  0
   46.5520   89.4900  128.9220 C   0  0  0  0  0  0  0  0  0 12  0  0
   47.6860   89.7060  129.8770 C   0  0  0  0  0  0  0  0  0 11  0  0
   48.9290   88.8510  129.5870 C   0  0  1  0  0  0  0  0  0  8  0  0
   50.0770   89.2620  130.5000 C   0  0  0  0  0  0  0  0  0  9  0  0
   45.0460   90.6110  131.3910 F   0  0  0  0  0  0  0  0  0 20  0  0
   45.3830   88.9420  127.0870 N   0  0  0  0  0  0  0  0  0 14  0  0
   48.6330   87.4410  129.7880 N   0  0  0  0  0  0  0  0  0  7  0  0
   49.8040   88.9840  131.8590 O   0  0  0  0  0  0  0  0  0 10  0  0
   48.4030   84.7100  130.9380 S   0  0  0  0  0  0  0  0  0  4  0  0
  2  1  1  0
  3  2  2  0
  4  1  1  0
  4  5  1  6
  6  4  1  0
  8  7  2  0
  9  8  1  0
 10  9  2  0
 11 10  1  0
 12  7  1  0
 12 11  2  0
 14 13  2  0
 14 11  1  0
 15 14  1  0
 16 15  1  1
 17 16  1  0
 18 12  1  0
 19 13  1  0
 19 10  1  0
 20  2  1  0
 20 16  1  0
 21 17  1  0
  1 22  1  1
M  END
$$$$
