
     RDKit          3D

 12 13  0  0  0  0  0  0  0  0999 V2000
   25.1560  -11.9020   35.3960 N   0  0  0  0  0  0  0  0  0 10  0  0
   23.8490  -12.1270   35.6090 C   0  0  0  0  0  0  0  0  0 11  0  0
   23.1440  -11.5920   36.7040 C   0  0  0  0  0  0  0  0  0  6  0  0
   23.8140  -10.7620   37.6010 C   0  0  0  0  0  0  0  0  0  7  0  0
   25.1680  -10.5470   37.3490 C   0  0  0  0  0  0  0  0  0  8  0  0
   25.8290  -11.1270   36.2480 C   0  0  0  0  0  0  0  0  0  9  0  0
   21.2290  -12.4510   38.1190 N   0  0  0  0  0  0  0  0  0  1  0  0
   21.6980  -11.9160   36.8360 C   0  0  1  0  0  0  0  0  0  5  0  0
   20.8050  -10.6930   36.7070 C   0  0  0  0  0  0  0  0  0  4  0  0
   19.5520  -11.1260   37.4370 C   0  0  0  0  0  0  0  0  0  3  0  0
   19.7830  -12.4820   38.1160 C   0  0  0  0  0  0  0  0  0  2  0  0
   22.0240  -12.9020   39.2580 C   0  0  0  0  0  0  0  0  0  0  0  0
  2  1  2  0
  3  2  1  0
  4  3  2  0
  5  4  1  0
  6  1  1  0
  6  5  2  0
  8  7  1  0
  8  3  1  1
  9  8  1  0
 10  9  1  0
 11 10  1  0
 11  7  1  0
 12  7  1  0
M  END
$$$$
