
     RDKit          3D

 11 12  0  0  0  0  0  0  0  0999 V2000
    4.7070   27.2810   13.5120 C   0  0  2  0  0  0  0  0  0  6  0  0
    3.5720   28.1220   13.0340 C   0  0  0  0  0  0  0  0  0  8  0  0
    3.5430   28.7640   11.8040 O   0  0  0  0  0  0  0  0  0  9  0  0
    2.4150   28.0660   13.9810 C   0  0  0  0  0  0  0  0  0 10  0  0
    2.8580   26.8050   14.7010 C   0  0  1  0  0  0  0  0  0  3  0  0
    2.9830   25.6980   13.6320 C   0  0  0  0  0  0  0  0  0  4  0  0
    4.2700   25.9680   12.8660 C   0  0  0  0  0  0  0  0  0  5  0  0
    4.3150   27.1340   14.9640 C   0  0  2  0  0  0  0  0  0  1  0  0
    4.4380   28.4490   15.7120 C   0  0  0  0  0  0  0  0  0  0  0  0
    4.9460   25.9670   15.6980 C   0  0  0  0  0  0  0  0  0  2  0  0
    6.1060   27.8310   13.2150 C   0  0  0  0  0  0  0  0  0  7  0  0
  2  1  1  0
  2  3  2  0
  4  2  1  0
  5  4  1  6
  6  5  1  0
  7  6  1  0
  7  1  1  0
  8  5  1  0
  8  1  1  0
  8  9  1  1
 10  8  1  0
  1 11  1  1
M  END
$$$$
