
     RDKit          3D

 12 13  0  0  0  0  0  0  0  0999 V2000
   26.8690   27.4320    2.1370 C   0  0  2  0  0  0  0  0  0  7  0  0
   28.1910   27.9600    1.7250 C   0  0  0  0  0  0  0  0  0  5  0  0
   28.6310   28.0460    0.5860 O   0  0  0  0  0  0  0  0  0  6  0  0
   28.8890   28.3700    3.0470 C   0  0  0  0  0  0  0  0  0  4  0  0
   27.6690   28.0000    3.9320 C   0  0  1  0  0  0  0  0  0  3  0  0
   26.6800   29.0740    3.7810 C   0  0  2  0  0  0  0  0  0 10  0  0
   25.8130   29.2010    4.8080 O   0  0  0  0  0  0  0  0  0 11  0  0
   25.9550   28.6380    2.4700 C   0  0  0  0  0  0  0  0  0  9  0  0
   27.1450   26.9050    3.3110 C   0  0  2  0  0  0  0  0  0  1  0  0
   28.1240   25.7810    3.1770 C   0  0  0  0  0  0  0  0  0  0  0  0
   25.9050   26.3790    3.9530 C   0  0  0  0  0  0  0  0  0  2  0  0
   26.2570   26.4230    1.1270 C   0  0  0  0  0  0  0  0  0  8  0  0
  2  1  1  0
  3  2  2  0
  4  2  1  0
  5  4  1  6
  6  5  1  0
  6  7  1  1
  8  6  1  0
  8  1  1  0
  9  1  1  0
  9  5  1  0
  9 10  1  6
 11  9  1  0
  1 12  1  6
M  END
$$$$
