
     RDKit          3D

 15 17  0  0  0  0  0  0  0  0999 V2000
  -13.8650  -17.0970   -7.9950 C   0  0  0  0  0  0  0  0  0  0  0  0
  -18.6870  -19.7730   -6.1790 C   0  0  0  0  0  0  0  0  0 11  0  0
  -20.0420  -20.2820   -5.7320 C   0  0  0  0  0  0  0  0  0 12  0  0
  -20.0020  -19.1570   -3.5910 C   0  0  0  0  0  0  0  0  0 14  0  0
  -14.6520  -17.3830   -5.7480 C   0  0  0  0  0  0  0  0  0  2  0  0
  -14.5640  -16.7160   -4.5110 C   0  0  0  0  0  0  0  0  0  3  0  0
  -15.5750  -16.7910   -3.5830 C   0  0  0  0  0  0  0  0  0  4  0  0
  -16.6940  -17.5590   -3.9060 C   0  0  0  0  0  0  0  0  0  5  0  0
  -18.6530  -18.6370   -3.9550 C   0  0  0  0  0  0  0  0  0  7  0  0
  -18.0510  -18.9040   -5.1440 C   0  0  0  0  0  0  0  0  0  8  0  0
  -16.7930  -18.2320   -5.1430 C   0  0  0  0  0  0  0  0  0  9  0  0
  -15.7530  -18.1450   -6.0790 C   0  0  0  0  0  0  0  0  0 10  0  0
  -17.8480  -17.8160   -3.1950 N   0  0  0  0  0  0  0  0  0  6  0  0
  -20.7300  -19.3360   -4.8450 N   0  0  0  0  0  0  0  0  0 13  0  0
  -13.5860  -17.2470   -6.6070 O   0  0  0  0  0  0  0  0  0  1  0  0
  3  2  1  0
  6  5  1  0
  7  6  2  0
  8  7  1  0
  9  4  1  0
  2 10  1  6
 10  9  2  0
 11 10  1  0
 11  8  2  0
 12 11  1  0
 12  5  2  0
 13  9  1  0
 13  8  1  0
  3 14  1  6
  4 14  1  1
 15  5  1  0
  1 15  1  1
M  END
$$$$
