
     RDKit          3D

 12 12  0  0  0  0  0  0  0  0999 V2000
    4.6410    5.6220   17.0560 C   0  0  0  0  0  0  0  0  0  7  0  0
    4.0020   -1.8800   19.3950 C   0  0  0  0  0  0  0  0  0  0  0  0
    3.6070   -0.5610   18.7680 C   0  0  0  0  0  0  0  0  0  1  0  0
    4.6410    0.3490   19.1230 O   0  0  0  0  0  0  0  0  0  2  0  0
    4.6150    1.6440   18.5920 C   0  0  0  0  0  0  0  0  0  3  0  0
    5.5330    2.5800   19.0650 C   0  0  0  0  0  0  0  0  0  4  0  0
    5.5200    3.8630   18.5750 C   0  0  0  0  0  0  0  0  0  5  0  0
    4.6140    4.2080   17.5850 C   0  0  0  0  0  0  0  0  0  6  0  0
    3.7040    3.2710   17.0940 C   0  0  0  0  0  0  0  0  0 10  0  0
    3.7230    1.9770   17.6000 C   0  0  0  0  0  0  0  0  0 11  0  0
    3.6970    6.0260   16.3130 O   0  0  0  0  0  0  0  0  0  8  0  0
    5.6150    6.3620   17.3700 O   0  0  0  0  0  0  0  0  0  9  0  0
  2  3  1  1
  3  4  1  1
  5  4  1  0
  6  5  2  0
  7  6  1  0
  8  1  1  0
  8  7  2  0
  9  8  1  0
 10  9  2  0
 10  5  1  0
 11  1  2  0
 12  1  1  0
M  END
$$$$
