
     RDKit          3D

 14 15  0  0  0  0  0  0  0  0999 V2000
    3.5390    0.4360   19.7560 C   0  0  0  0  0  0  0  0  0  7  0  0
    2.7840   -0.7250   21.7190 C   0  0  0  0  0  0  0  0  0  9  0  0
    4.5540    5.4780   17.1770 C   0  0  0  0  0  0  0  0  0  1  0  0
    4.3760    4.1370   17.8410 C   0  0  0  0  0  0  0  0  0  3  0  0
    5.1370    3.7870   18.9550 C   0  0  0  0  0  0  0  0  0  4  0  0
    4.9120    2.5700   19.5850 C   0  0  0  0  0  0  0  0  0  5  0  0
    3.9260    1.7250   19.0860 C   0  0  0  0  0  0  0  0  0  6  0  0
    3.1490    2.0980   18.0040 C   0  0  0  0  0  0  0  0  0 12  0  0
    3.3750    3.3030   17.3740 C   0  0  0  0  0  0  0  0  0 13  0  0
    3.3000   -0.8140   19.1720 C   0  0  0  0  0  0  0  0  0 11  0  0
    3.2100    0.4950   21.1630 C   0  0  0  0  0  0  0  0  0  8  0  0
    3.6220    5.9080   16.4390 O   0  0  0  0  0  0  0  0  0  0  0  0
    5.5280    6.2070   17.4710 O   0  0  0  0  0  0  0  0  0  2  0  0
    2.7790   -1.7970   20.4330 S   0  0  0  0  0  0  0  0  0 10  0  0
  4  3  1  0
  4  5  2  0
  6  5  1  0
  7  6  2  0
  7  1  1  0
  8  7  1  0
  9  8  2  0
  9  4  1  0
  1 10  2  0
 11  2  2  0
 11  1  1  0
  3 12  2  0
 13  3  1  0
 14 10  1  0
 14  2  1  0
M  END
$$$$
