
     RDKit          3D

 11 12  0  0  0  0  0  0  0  0999 V2000
  -19.6800  -20.6230   -5.1870 C   0  0  0  0  0  0  0  0  0  1  0  0
  -15.2390  -17.5990   -5.2810 C   0  0  0  0  0  0  0  0  0  7  0  0
  -18.7220  -19.7560   -4.4240 C   0  0  0  0  0  0  0  0  0  2  0  0
  -16.9650  -18.3940   -3.8730 C   0  0  0  0  0  0  0  0  0  5  0  0
  -17.5550  -19.0980   -4.9440 C   0  0  0  0  0  0  0  0  0 10  0  0
  -16.9500  -19.0330   -6.2050 C   0  0  0  0  0  0  0  0  0  9  0  0
  -18.7850  -19.4310   -3.0980 C   0  0  0  0  0  0  0  0  0  3  0  0
  -15.8040  -17.6380   -4.0270 C   0  0  0  0  0  0  0  0  0  6  0  0
  -15.8030  -18.2860   -6.3560 C   0  0  0  0  0  0  0  0  0  8  0  0
  -20.9860  -19.9840   -5.3770 N   0  0  0  0  0  0  0  0  0  0  0  0
  -17.7370  -18.6150   -2.7630 N   0  0  0  0  0  0  0  0  0  4  0  0
  3  1  1  0
  5  4  2  0
  5  3  1  0
  6  5  1  0
  7  3  2  0
  8  4  1  0
  8  2  2  0
  9  6  2  0
  9  2  1  0
  1 10  1  1
 11  7  1  0
 11  4  1  0
M  END
$$$$
