
     RDKit          3D

 11 11  0  0  0  0  0  0  0  0999 V2000
    3.0020   -0.5770   19.0750 C   0  0  0  0  0  0  0  0  0  0  0  0
    4.0880    1.5630   18.3630 C   0  0  0  0  0  0  0  0  0  2  0  0
    5.0860    1.4480   19.3260 C   0  0  0  0  0  0  0  0  0  3  0  0
    5.8900    2.5310   19.6560 C   0  0  0  0  0  0  0  0  0  4  0  0
    5.7140    3.7290   18.9740 C   0  0  0  0  0  0  0  0  0  5  0  0
    4.7200    3.8410   17.9940 C   0  0  0  0  0  0  0  0  0  6  0  0
    3.9070    2.7590   17.6650 C   0  0  0  0  0  0  0  0  0 10  0  0
    4.5540    5.1670   17.2730 C   0  0  0  0  0  0  0  0  0  7  0  0
    3.2950    0.4000   18.0410 N   0  0  0  0  0  0  0  0  0  1  0  0
    3.5940    5.3420   16.4810 O   0  0  0  0  0  0  0  0  0  8  0  0
    5.3960    6.0740   17.4920 O   0  0  0  0  0  0  0  0  0  9  0  0
  3  2  2  0
  4  3  1  0
  5  4  2  0
  6  5  1  0
  7  6  2  0
  7  2  1  0
  8  6  1  0
  2  9  1  0
  9  1  1  0
 10  8  2  0
 11  8  1  0
M  END
$$$$
