
     RDKit          3D

 13 13  0  0  0  0  0  0  0  0999 V2000
    5.1510    7.2240   17.4080 C   0  0  0  0  0  0  0  0  0  8  0  0
    5.1430    5.7950   17.9560 C   0  0  0  0  0  0  0  0  0  7  0  0
    4.2340    4.9290   17.5410 C   0  0  0  0  0  0  0  0  0  6  0  0
    4.2180    3.4940   18.0700 C   0  0  0  0  0  0  0  0  0  5  0  0
    5.0790    3.1240   19.0910 C   0  0  0  0  0  0  0  0  0  4  0  0
    5.0630    1.8290   19.5680 C   0  0  0  0  0  0  0  0  0  3  0  0
    4.1940    0.8960   19.0280 C   0  0  0  0  0  0  0  0  0  2  0  0
    3.4570   -1.3730   18.9050 C   0  0  0  0  0  0  0  0  0  0  0  0
    3.3230    1.2590   18.0040 C   0  0  0  0  0  0  0  0  0 12  0  0
    3.3440    2.5610   17.5240 C   0  0  0  0  0  0  0  0  0 11  0  0
    6.1110    7.9920   17.6690 O   0  0  0  0  0  0  0  0  0  9  0  0
    4.2090    7.6400   16.6910 O   0  0  0  0  0  0  0  0  0 10  0  0
    4.2260   -0.4000   19.5560 O   0  0  0  0  0  0  0  0  0  1  0  0
  2  1  1  0
  3  2  2  3
  4  3  1  0
  5  4  2  0
  6  5  1  0
  7  6  2  0
  9  7  1  0
 10  9  2  0
 10  4  1  0
 11  1  2  0
 12  1  1  0
 13  8  1  0
 13  7  1  0
M  END
$$$$
