
     RDKit          3D

 12 12  0  0  0  0  0  0  0  0999 V2000
    4.6500    5.4030   17.2220 C   0  0  0  0  0  0  0  0  0  7  0  0
    4.5210    3.9890   17.7530 C   0  0  0  0  0  0  0  0  0  6  0  0
    5.3580    3.5310   18.7650 C   0  0  0  0  0  0  0  0  0  5  0  0
    5.2290    2.2440   19.2750 C   0  0  0  0  0  0  0  0  0  4  0  0
    4.2670    1.3520   18.7930 C   0  0  0  0  0  0  0  0  0  3  0  0
    3.4260    1.8070   17.7700 C   0  0  0  0  0  0  0  0  0 11  0  0
    3.5530    3.1000   17.2600 C   0  0  0  0  0  0  0  0  0 10  0  0
    4.1410   -0.0350   19.3680 C   0  0  0  0  0  0  0  0  0  2  0  0
    4.5470   -1.1730   18.4620 C   0  0  0  0  0  0  0  0  0  1  0  0
    4.3910   -2.5540   19.0850 C   0  0  0  0  0  0  0  0  0  0  0  0
    3.6870    5.7530   16.4840 O   0  0  0  0  0  0  0  0  0  8  0  0
    5.6290    6.0720   17.5570 O   0  0  0  0  0  0  0  0  0  9  0  0
  2  1  1  0
  3  2  2  0
  4  3  1  0
  5  4  2  0
  6  5  1  0
  7  6  2  0
  7  2  1  0
  8  5  1  0
  9  8  1  0
 10  9  1  0
 11  1  2  0
 12  1  1  0
M  END
$$$$
