
     RDKit          3D

 12 12  0  0  0  0  0  0  0  0999 V2000
    4.1900    5.0860   17.2910 C   0  0  0  0  0  0  0  0  0  7  0  0
    1.8530    0.1070   21.6430 C   0  0  0  0  0  0  0  0  0  0  0  0
    1.9740   -0.5850   20.2840 C   0  0  0  0  0  0  0  0  0  1  0  0
    3.6820   -0.4880   19.6890 S   0  0  0  0  0  0  0  0  0  2  0  0
    3.8420    1.1660   18.9780 C   0  0  0  0  0  0  0  0  0  3  0  0
    3.0110    1.5330   17.9280 C   0  0  0  0  0  0  0  0  0  4  0  0
    3.1220    2.7990   17.3790 C   0  0  0  0  0  0  0  0  0  5  0  0
    4.0590    3.6900   17.8890 C   0  0  0  0  0  0  0  0  0  6  0  0
    4.8880    3.3190   18.9370 C   0  0  0  0  0  0  0  0  0 10  0  0
    4.7780    2.0530   19.4850 C   0  0  0  0  0  0  0  0  0 11  0  0
    5.1680    5.8140   17.6160 O   0  0  0  0  0  0  0  0  0  8  0  0
    3.3190    5.5090   16.4830 O   0  0  0  0  0  0  0  0  0  9  0  0
  3  2  1  0
  4  3  1  0
  5  4  1  0
  6  5  2  0
  7  6  1  0
  8  7  2  0
  8  1  1  0
  9  8  1  0
 10  9  2  0
 10  5  1  0
 11  1  2  0
 12  1  1  0
M  END
$$$$
