
     RDKit          3D

 14 15  0  0  0  0  0  0  0  0999 V2000
    2.7250   -0.9710   21.4830 C   0  0  0  0  0  0  0  0  0  9  0  0
    2.7770   -1.9610   20.4880 C   0  0  0  0  0  0  0  0  0 10  0  0
    4.6350    5.3080   17.1930 C   0  0  0  0  0  0  0  0  0  1  0  0
    4.4550    3.9540   17.8230 C   0  0  0  0  0  0  0  0  0  3  0  0
    3.4770    3.1060   17.3350 C   0  0  0  0  0  0  0  0  0  4  0  0
    3.2580    1.9110   17.9740 C   0  0  0  0  0  0  0  0  0  5  0  0
    4.0460    1.5770   19.0540 C   0  0  0  0  0  0  0  0  0  6  0  0
    3.6360    0.3150   19.7350 C   0  0  0  0  0  0  0  0  0  7  0  0
    3.1780    0.3180   21.0610 C   0  0  0  0  0  0  0  0  0  8  0  0
    4.9920    2.4290   19.5800 C   0  0  0  0  0  0  0  0  0 12  0  0
    5.2140    3.6260   18.9400 C   0  0  0  0  0  0  0  0  0 13  0  0
    3.7120    5.7550   16.4630 O   0  0  0  0  0  0  0  0  0  0  0  0
    5.5810    6.0300   17.5540 O   0  0  0  0  0  0  0  0  0  2  0  0
    3.3730   -1.2040   19.1010 S   0  0  0  0  0  0  0  0  0 11  0  0
  2  1  2  0
  4  3  1  0
  4  5  2  0
  6  5  1  0
  7  6  2  0
  8  7  1  0
  9  8  2  0
  9  1  1  0
 10  7  1  0
 11 10  2  0
 11  4  1  0
  3 12  2  0
 13  3  1  0
  8 14  1  0
 14  2  1  0
M  END
$$$$
