
     RDKit          3D

 12 12  0  0  0  0  0  0  0  0999 V2000
    4.6340    5.2900   17.0790 C   0  0  0  0  0  0  0  0  0  1  0  0
    3.4070    1.8100   17.9870 C   0  0  0  0  0  0  0  0  0  5  0  0
    3.5240    3.0400   17.3600 C   0  0  0  0  0  0  0  0  0  4  0  0
    4.5040    3.9320   17.7630 C   0  0  0  0  0  0  0  0  0  3  0  0
    5.3680    3.5930   18.7920 C   0  0  0  0  0  0  0  0  0 11  0  0
    5.2510    2.3630   19.4160 C   0  0  0  0  0  0  0  0  0 10  0  0
    4.2740    1.4700   19.0120 C   0  0  0  0  0  0  0  0  0  6  0  0
    4.1740    0.1230   19.7340 C   0  0  0  0  0  0  0  0  0  7  0  0
    3.5320   -1.0220   18.9480 C   0  0  0  0  0  0  0  0  0  8  0  0
    5.6450    6.0080   17.3020 O   0  0  0  0  0  0  0  0  0  0  0  0
    3.7300    5.6900   16.3000 O   0  0  0  0  0  0  0  0  0  2  0  0
    4.7050   -1.7960   17.8510 Cl  0  0  0  0  0  0  0  0  0  9  0  0
  3  2  2  0
  4  3  1  0
  4  1  1  0
  5  4  2  0
  6  5  1  0
  7  6  2  0
  7  2  1  0
  8  7  1  6
  9  8  1  0
 10  1  2  0
 11  1  1  0
  9 12  1  1
M  END
$$$$
