
     RDKit          3D

 13 13  0  0  0  0  0  0  0  0999 V2000
    1.8810    0.1780   22.3370 C   0  0  0  0  0  0  0  0  0  0  0  0
    3.1330   -0.1150   21.5090 C   0  0  0  0  0  0  0  0  0  1  0  0
    2.8130   -0.6040   20.0940 C   0  0  0  0  0  0  0  0  0  2  0  0
    4.0250   -0.5210   19.1670 C   0  0  0  0  0  0  0  0  0  3  0  0
    4.2210    0.9040   18.6470 C   0  0  0  0  0  0  0  0  0  4  0  0
    5.2380    1.7110   19.1430 C   0  0  0  0  0  0  0  0  0  5  0  0
    5.3950    3.0000   18.6600 C   0  0  0  0  0  0  0  0  0  6  0  0
    4.5380    3.4870   17.6840 C   0  0  0  0  0  0  0  0  0  7  0  0
    3.5220    2.6850   17.1940 C   0  0  0  0  0  0  0  0  0 11  0  0
    3.3640    1.3980   17.6780 C   0  0  0  0  0  0  0  0  0 12  0  0
    4.6990    4.9110   17.1570 C   0  0  0  0  0  0  0  0  0  8  0  0
    3.7360    5.4700   16.5630 O   0  0  0  0  0  0  0  0  0  9  0  0
    5.7820    5.5320   17.3330 O   0  0  0  0  0  0  0  0  0 10  0  0
  2  1  1  0
  3  2  1  0
  4  3  1  0
  5  4  1  0
  6  5  2  0
  7  6  1  0
  8  7  2  0
  9  8  1  0
 10  9  2  0
 10  5  1  0
 11  8  1  0
 12 11  2  0
 13 11  1  0
M  END
$$$$
