
     RDKit          3D

 11 12  0  0  0  0  0  0  0  0999 V2000
  -15.2550  -17.5560   -6.6220 C   0  0  0  0  0  0  0  0  0  8  0  0
  -18.1160  -19.5160   -5.0320 C   0  0  0  0  0  0  0  0  0  2  0  0
  -17.8060  -19.1190   -3.7120 C   0  0  0  0  0  0  0  0  0  3  0  0
  -16.7440  -18.2910   -3.4180 C   0  0  0  0  0  0  0  0  0  4  0  0
  -15.9680  -17.8350   -4.4760 C   0  0  0  0  0  0  0  0  0  5  0  0
  -14.4510  -16.8500   -5.7810 C   0  0  0  0  0  0  0  0  0  7  0  0
  -19.2970  -20.4280   -5.2960 C   0  0  0  0  0  0  0  0  0  1  0  0
  -16.2430  -18.2050   -5.8130 C   0  0  0  0  0  0  0  0  0  9  0  0
  -17.3310  -19.0540   -6.0840 C   0  0  0  0  0  0  0  0  0 10  0  0
  -20.5770  -19.7320   -5.4970 N   0  0  0  0  0  0  0  0  0  0  0  0
  -14.8730  -17.0050   -4.4880 N   0  0  0  0  0  0  0  0  0  6  0  0
  3  2  1  0
  4  3  2  0
  5  4  1  0
  6  1  2  0
  7  2  1  0
  8  1  1  0
  8  5  2  0
  9  2  2  0
  9  8  1  0
  7 10  1  1
 11  6  1  0
 11  5  1  0
M  END
$$$$
