
     RDKit          3D

 13 13  0  0  0  0  0  0  0  0999 V2000
    3.5390    1.4360   17.5400 C   0  0  0  0  0  0  0  0  0  5  0  0
    4.5440    5.0360   16.9880 C   0  0  0  0  0  0  0  0  0  8  0  0
    4.9260   -0.4240   20.5240 C   0  0  0  0  0  0  0  0  0  0  0  0
    4.2370   -0.3500   19.1640 C   0  0  2  0  0  0  0  0  0  1  0  0
    2.7480   -0.6630   19.3410 C   0  0  0  0  0  0  0  0  0  2  0  0
    4.8460   -1.4040   18.2370 C   0  0  0  0  0  0  0  0  0  3  0  0
    4.3510    1.0710   18.6060 C   0  0  0  0  0  0  0  0  0  4  0  0
    5.2430    1.9930   19.1500 C   0  0  0  0  0  0  0  0  0 12  0  0
    5.3080    3.2800   18.6390 C   0  0  0  0  0  0  0  0  0 11  0  0
    4.4910    3.6330   17.5690 C   0  0  0  0  0  0  0  0  0  7  0  0
    3.6090    2.7200   17.0230 C   0  0  0  0  0  0  0  0  0  6  0  0
    5.4720    5.8070   17.3360 O   0  0  0  0  0  0  0  0  0  9  0  0
    3.6450    5.4260   16.1900 O   0  0  0  0  0  0  0  0  0 10  0  0
  4  3  1  1
  5  4  1  0
  6  4  1  0
  7  4  1  0
  7  1  2  0
  8  7  1  0
  9  8  2  0
 10  9  1  0
 10  2  1  0
 11 10  2  0
 11  1  1  0
 12  2  2  0
 13  2  1  0
M  END
$$$$
