
     RDKit          3D

 34 38  0  0  0  0  0  0  0  0999 V2000
   11.2740   20.0500  -35.1650 C   0  0  0  0  0  0  0  0  0 30  0  0
   12.3440   18.9550  -35.3040 C   0  0  2  0  0  0  0  0  0 29  0  0
   13.6840   19.4560  -34.8400 C   0  0  0  0  0  0  0  0  0 16  0  0
   13.6870   20.4480  -33.7080 C   0  0  1  0  0  0  0  0  0 11  0  0
   12.3890   20.2860  -32.9520 C   0  0  2  0  0  0  0  0  0 32  0  0
   11.2560   20.7900  -33.8240 C   0  0  0  0  0  0  0  0  0 31  0  0
   12.3640   18.5070  -36.7640 C   0  0  2  0  0  0  0  0  0 27  0  0
   13.6230   17.7240  -37.1810 C   0  0  2  0  0  0  0  0  0 19  0  0
   14.7740   17.7120  -36.1670 C   0  0  0  0  0  0  0  0  0 18  0  0
   14.8080   19.0270  -35.4250 C   0  0  0  0  0  0  0  0  0 17  0  0
   12.1200   19.7330  -37.6170 C   0  0  0  0  0  0  0  0  0 26  0  0
   12.0250   19.2750  -39.0560 C   0  0  0  0  0  0  0  0  0 25  0  0
   13.4320   18.9210  -39.5080 C   0  0  1  0  0  0  0  0  0 23  0  0
   14.1430   17.8970  -38.6290 C   0  0  1  0  0  0  0  0  0 20  0  0
   14.7440   20.2510  -32.6320 C   0  0  0  0  0  0  0  0  0 10  0  0
   14.1060   20.8230  -31.3610 C   0  0  0  0  0  0  0  0  0  9  0  0
   12.6290   21.0640  -31.6670 C   0  0  2  0  0  0  0  0  0  8  0  0
   13.8540   21.8360  -34.2740 C   0  0  0  0  0  0  0  0  0 12  0  0
   12.1620   18.8200  -32.6040 C   0  0  0  0  0  0  0  0  0 33  0  0
   11.1780   17.5710  -36.9360 C   0  0  0  0  0  0  0  0  0 28  0  0
   11.7230   20.6130  -30.5260 C   0  0  2  0  0  0  0  0  0  6  0  0
   15.6060   18.3100  -38.5450 C   0  0  0  0  0  0  0  0  0 21  0  0
   14.0440   16.5370  -39.3080 C   0  0  0  0  0  0  0  0  0 22  0  0
   10.2570   20.6450  -30.9450 C   0  0  0  0  0  0  0  0  0  7  0  0
   11.9470   21.4740  -29.2870 C   0  0  0  0  0  0  0  0  0  5  0  0
   10.8310   21.2820  -28.2640 C   0  0  0  0  0  0  0  0  0  4  0  0
   11.3920   21.1310  -26.8540 C   0  0  0  0  0  0  0  0  0  3  0  0
   10.5270   21.8530  -25.8240 C   0  0  1  0  0  0  0  0  0  1  0  0
    9.0700   21.4160  -25.9230 C   0  0  0  0  0  0  0  0  0  0  0  0
   11.0610   21.6440  -24.4120 C   0  0  0  0  0  0  0  0  0  2  0  0
   14.9250   22.1040  -35.0340 C   0  0  0  0  0  0  0  0  0 13  0  0
   15.6870   23.0930  -35.8370 C   0  0  0  0  0  0  0  0  0 14  0  0
   16.1790   21.6120  -35.6580 C   0  0  0  0  0  0  0  0  0 15  0  0
   13.3880   18.4260  -40.8530 O   0  0  0  0  0  0  0  0  0 24  0  0
  2  1  1  6
  3  2  1  0
  4  3  1  0
  5  4  1  0
  6  5  1  0
  6  1  1  0
  7  2  1  0
  8  7  1  0
  8  9  1  1
 10  9  1  0
 10  3  2  0
 11  7  1  0
 12 11  1  0
 13 12  1  0
 14 13  1  0
 14  8  1  0
 15  4  1  0
 16 15  1  0
 17  5  1  0
 17 16  1  1
  4 18  1  6
  5 19  1  1
  7 20  1  1
 21 17  1  0
 14 22  1  1
 23 14  1  0
 21 24  1  6
 25 21  1  0
 26 25  1  0
 27 26  1  0
 28 27  1  0
 28 29  1  1
 30 28  1  0
 31 18  2  3
 32 31  1  0
 33 32  1  0
 33 31  1  0
 13 34  1  6
M  END
$$$$
