
     RDKit          3D

 49 51  0  0  0  0  0  0  0  0999 V2000
   21.0800  -22.7410  -12.3500 O   0  0  0  0  0  0  0  0  0  5  0  0
   21.4160  -21.6760  -12.9440 C   0  0  0  0  0  0  0  0  0  4  0  0
   22.2250  -20.5580  -12.3440 C   0  0  0  0  0  0  0  0  0  6  0  0
   22.7150  -20.6840  -11.1140 C   0  0  0  0  0  0  0  0  0  7  0  0
   23.5440  -19.5870  -10.5480 C   0  0  2  0  0  0  0  0  0  8  0  0
   25.0030  -20.0690  -10.5950 C   0  0  0  0  0  0  0  0  0  9  0  0
   23.1370  -19.2980   -9.0970 C   0  0  1  0  0  0  0  0  0 10  0  0
   23.9260  -18.1240   -8.7600 O   0  0  0  0  0  0  0  0  0 11  0  0
   25.0100  -18.2860   -7.8590 C   0  0  2  0  0  0  0  0  0 12  0  0
   24.4390  -18.5130   -6.5670 O   0  0  0  0  0  0  0  0  0 13  0  0
   25.4040  -18.6550   -5.5110 C   0  0  2  0  0  0  0  0  0 14  0  0
   24.6910  -18.8950   -4.1710 C   0  0  0  0  0  0  0  0  0 15  0  0
   26.3320  -17.4320   -5.4450 C   0  0  0  0  0  0  0  0  0 16  0  0
   26.8830  -16.9740   -6.8300 C   0  0  2  0  0  0  0  0  0 17  0  0
   27.4200  -15.5940   -6.6990 N   0  0  0  0  0  0  0  0  0 18  0  0
   26.4000  -14.5730   -6.3680 C   0  0  0  0  0  0  0  0  0 19  0  0
   28.5430  -15.5750   -5.7430 C   0  0  0  0  0  0  0  0  0 20  0  0
   25.8070  -16.9740   -7.9280 C   0  0  1  0  0  0  0  0  0 21  0  0
   26.3280  -16.6970   -9.2640 O   0  0  0  0  0  0  0  0  0 22  0  0
   21.6050  -19.0640   -8.8730 C   0  0  1  0  0  0  0  0  0 23  0  0
   21.2110  -19.3460   -7.4140 C   0  0  0  0  0  0  0  0  0 24  0  0
   21.1430  -17.6240   -9.3320 C   0  0  0  0  0  0  0  0  0 25  0  0
   19.6480  -17.2270   -9.2060 C   0  0  1  0  0  0  0  0  0 26  0  0
   19.3470  -15.7800   -9.6990 C   0  0  0  0  0  0  0  0  0 27  0  0
   18.7420  -18.2250   -9.9250 C   0  0  0  0  0  0  0  0  0 28  0  0
   17.8820  -18.8540   -9.2820 O   0  0  0  0  0  0  0  0  0 29  0  0
   18.9770  -18.5160  -11.3590 C   0  0  0  0  0  0  0  0  0 30  0  0
   18.5140  -19.6590  -11.8860 C   0  0  0  0  0  0  0  0  0 31  0  0
   18.8100  -20.0740  -13.2660 C   0  0  0  0  0  0  0  0  0 32  0  0
   18.3740  -21.2780  -13.7660 C   0  0  0  0  0  0  0  0  0 33  0  0
   21.0660  -21.4840  -14.3590 O   0  0  0  0  0  0  0  0  0  3  0  0
   20.1560  -22.4010  -15.0310 C   0  0  2  0  0  0  0  0  0  2  0  0
   20.7490  -22.7480  -16.4050 C   0  0  0  0  0  0  0  0  0  1  0  0
   22.2310  -23.0860  -16.3800 C   0  0  0  0  0  0  0  0  0  0  0  0
   18.7740  -21.7030  -15.1710 C   0  0  1  0  0  0  0  0  0 34  0  0
   17.7780  -22.5820  -15.9220 C   0  0  0  0  0  0  0  0  0 35  0  0
   17.3730  -23.7430  -15.2130 O   0  0  0  0  0  0  0  0  0 36  0  0
   16.0580  -23.6130  -14.8120 C   0  0  2  0  0  0  0  0  0 37  0  0
   16.0820  -23.7760  -13.3920 O   0  0  0  0  0  0  0  0  0 38  0  0
   14.7800  -23.7690  -12.7730 C   0  0  2  0  0  0  0  0  0 39  0  0
   15.0670  -23.7890  -11.2510 C   0  0  0  0  0  0  0  0  0 40  0  0
   13.8890  -24.9060  -13.3740 C   0  0  1  0  0  0  0  0  0 41  0  0
   12.5180  -24.9340  -12.8640 O   0  0  0  0  0  0  0  0  0 42  0  0
   13.8270  -24.8130  -14.9120 C   0  0  1  0  0  0  0  0  0 43  0  0
   13.0980  -23.6240  -15.3260 O   0  0  0  0  0  0  0  0  0 44  0  0
   11.8020  -23.8530  -15.8770 C   0  0  0  0  0  0  0  0  0 45  0  0
   15.2340  -24.7130  -15.5100 C   0  0  1  0  0  0  0  0  0 46  0  0
   15.1280  -24.4270  -16.9280 O   0  0  0  0  0  0  0  0  0 47  0  0
   14.8060  -25.6130  -17.6280 C   0  0  0  0  0  0  0  0  0 48  0  0
  2  1  2  0
  3  2  1  0
  4  3  2  3
  5  4  1  0
  5  6  1  1
  7  5  1  0
  7  8  1  6
  9  8  1  6
 10  9  1  0
 11 10  1  0
 11 12  1  1
 13 11  1  0
 14 13  1  0
 14 15  1  1
 16 15  1  0
 17 15  1  0
 18 14  1  0
 18  9  1  0
 18 19  1  6
 20  7  1  0
 20 21  1  1
 22 20  1  0
 23 22  1  0
 23 24  1  6
 25 23  1  0
 25 26  2  0
 27 25  1  0
 28 27  2  3
 29 28  1  0
 30 29  2  3
 31  2  1  0
 32 31  1  0
 32 33  1  6
 34 33  1  0
 35 32  1  0
 35 30  1  0
 35 36  1  1
 37 36  1  0
 38 37  1  6
 39 38  1  0
 40 39  1  0
 40 41  1  1
 42 40  1  0
 42 43  1  1
 44 42  1  0
 44 45  1  1
 46 45  1  0
 47 44  1  0
 47 38  1  0
 47 48  1  6
 49 48  1  0
M  END
$$$$
