
     RDKit          3D

 22 22  0  0  0  0  0  0  0  0999 V2000
   43.0450   -0.6240   10.4910 C   0  0  1  0  0  0  0  0  0 16  0  0
   42.4780   -1.8390   11.2190 C   0  0  0  0  0  0  0  0  0 19  0  0
   43.5500   -2.4640   12.1130 C   0  0  0  0  0  0  0  0  0 20  0  0
   43.9060   -1.5070   13.2480 C   0  0  0  0  0  0  0  0  0 21  0  0
   44.0800   -0.0760   12.7830 C   0  0  0  0  0  0  0  0  0  1  0  0
   43.6730    0.3440   11.5110 C   0  0  0  0  0  0  0  0  0  2  0  0
   43.8520    1.7590   11.1610 C   0  0  0  0  0  0  0  0  0  3  0  0
   45.1780    2.2520   10.7880 C   0  0  0  0  0  0  0  0  0  4  0  0
   45.3560    3.7060   10.5930 C   0  0  0  0  0  0  0  0  0  5  0  0
   46.7180    4.1880   10.6820 C   0  0  0  0  0  0  0  0  0  7  0  0
   47.3170    5.1280    9.7510 C   0  0  0  0  0  0  0  0  0  8  0  0
   48.7780    5.0990    9.8090 C   0  0  0  0  0  0  0  0  0  9  0  0
   49.5980    6.3070    9.8860 C   0  0  0  0  0  0  0  0  0 10  0  0
   50.9830    6.0600    9.8050 C   0  0  0  0  0  0  0  0  0 12  0  0
   51.9650    7.0020    9.3010 C   0  0  0  0  0  0  0  0  0 13  0  0
   44.1430   -1.0660    9.5050 C   0  0  0  0  0  0  0  0  0 17  0  0
   41.8840    0.0190    9.7320 C   0  0  0  0  0  0  0  0  0 18  0  0
   44.6900    0.9010   13.7580 C   0  0  0  0  0  0  0  0  0  0  0  0
   44.2060    4.6570   10.3610 C   0  0  0  0  0  0  0  0  0  6  0  0
   48.9840    7.6720   10.0580 C   0  0  0  0  0  0  0  0  0 11  0  0
   51.6160    8.0980    8.8320 O   0  0  0  0  0  0  0  0  0 14  0  0
   53.1710    6.7140    9.3390 O   0  0  0  0  0  0  0  0  0 15  0  0
  2  1  1  0
  3  2  1  0
  4  3  1  0
  5  4  1  0
  6  1  1  0
  6  5  2  0
  7  6  1  0
  8  7  2  3
  9  8  1  0
 10  9  2  3
 11 10  1  0
 12 11  2  3
 13 12  1  0
 14 13  2  3
 15 14  1  0
  1 16  1  6
 17  1  1  0
 18  5  1  0
 19  9  1  0
 20 13  1  0
 21 15  2  0
 22 15  1  0
M  END
$$$$
