
     RDKit          3D

 20 23  0  0  0  0  0  0  0  0999 V2000
  -23.9100   32.1220   16.5330 C   0  0  0  0  0  0  0  0  0  8  0  0
  -23.6040   30.7540   17.1330 C   0  0  0  0  0  0  0  0  0  7  0  0
  -22.8280   29.8600   16.1620 C   0  0  1  0  0  0  0  0  0  6  0  0
  -22.6510   28.4530   16.7310 C   0  0  2  0  0  0  0  0  0  5  0  0
  -22.0200   28.2390   18.1170 C   0  0  0  0  0  0  0  0  0  4  0  0
  -21.6100   26.7590   18.1230 C   0  0  0  0  0  0  0  0  0  3  0  0
  -21.7880   26.2500   16.6900 C   0  0  0  0  0  0  0  0  0  2  0  0
  -21.8500   27.5110   15.8200 C   0  0  2  0  0  0  0  0  0  1  0  0
  -20.4200   27.9880   15.5770 C   0  0  0  0  0  0  0  0  0  0  0  0
  -22.5890   27.3960   14.4780 C   0  0  0  0  0  0  0  0  0 19  0  0
  -24.6570   32.0020   15.2050 C   0  0  2  0  0  0  0  0  0  9  0  0
  -26.8330   33.8310   13.2020 O   0  0  0  0  0  0  0  0  0 12  0  0
  -22.8940   28.7560   13.8470 C   0  0  0  0  0  0  0  0  0 18  0  0
  -23.5640   29.7540   14.8120 C   0  0  2  0  0  0  0  0  0 17  0  0
  -23.8620   31.1640   14.1730 C   0  0  2  0  0  0  0  0  0 15  0  0
  -22.5580   31.8600   13.7560 C   0  0  0  0  0  0  0  0  0 16  0  0
  -24.7250   31.0570   12.9070 C   0  0  0  0  0  0  0  0  0 14  0  0
  -25.1430   32.4180   12.3180 C   0  0  0  0  0  0  0  0  0 13  0  0
  -25.7720   33.2760   13.3720 C   0  0  0  0  0  0  0  0  0 11  0  0
  -25.0320   33.3620   14.6770 C   0  0  0  0  0  0  0  0  0 10  0  0
  1  2  1  6
  3  2  1  1
  4  3  1  0
  4  5  1  1
  5  6  1  6
  6  7  1  1
  8  4  1  0
  7  8  1  1
  8  9  1  6
 10  8  1  0
 11  1  1  0
 10 13  1  1
 14 13  1  6
 14  3  1  0
 15 14  1  0
 15 11  1  0
 15 16  1  6
 17 15  1  0
 17 18  1  1
 18 19  1  6
 19 12  2  0
 11 20  1  6
 20 19  1  1
M  END
$$$$
