
     RDKit          3D

 31 34  0  0  0  0  0  0  0  0999 V2000
   -3.6580   35.8380   30.2920 C   0  0  0  0  0  0  0  0  0 13  0  0
   -4.1850   36.9290   29.4280 C   0  0  0  0  0  0  0  0  0 30  0  0
   -4.6350   38.1690   30.1870 C   0  0  0  0  0  0  0  0  0 29  0  0
   -3.6350   38.4620   31.2990 C   0  0  1  0  0  0  0  0  0 28  0  0
   -3.6640   39.9280   31.8290 C   0  0  2  0  0  0  0  0  0 25  0  0
   -5.0210   40.3190   32.4400 C   0  0  0  0  0  0  0  0  0 26  0  0
   -3.3730   40.9250   30.6950 C   0  0  0  0  0  0  0  0  0 27  0  0
   -2.5710   40.0720   32.9000 C   0  0  1  0  0  0  0  0  0 23  0  0
   -2.7170   41.3260   33.5660 O   0  0  0  0  0  0  0  0  0 24  0  0
   -2.5560   38.9730   33.9390 C   0  0  0  0  0  0  0  0  0 22  0  0
   -2.4640   37.5860   33.3000 C   0  0  0  0  0  0  0  0  0 21  0  0
   -3.6410   37.3090   32.3470 C   0  0  1  0  0  0  0  0  0 19  0  0
   -4.9340   37.1760   33.1780 C   0  0  0  0  0  0  0  0  0 20  0  0
   -3.4390   35.9730   31.6150 C   0  0  0  0  0  0  0  0  0 14  0  0
   -3.1010   34.7900   32.4920 C   0  0  0  0  0  0  0  0  0 15  0  0
   -3.1670   33.3890   31.8640 C   0  0  0  0  0  0  0  0  0 16  0  0
   -4.0840   33.3800   30.6460 C   0  0  1  0  0  0  0  0  0 17  0  0
   -5.5260   33.7050   31.0720 C   0  0  0  0  0  0  0  0  0 18  0  0
   -3.5380   34.4680   29.6560 C   0  0  2  0  0  0  0  0  0 11  0  0
   -2.0380   34.2680   29.3300 C   0  0  0  0  0  0  0  0  0 12  0  0
   -4.3360   34.1890   28.3740 C   0  0  0  0  0  0  0  0  0 10  0  0
   -4.6130   32.6690   28.3950 C   0  0  0  0  0  0  0  0  0  9  0  0
   -4.0840   32.1140   29.7450 C   0  0  2  0  0  0  0  0  0  8  0  0
   -4.8530   30.8590   30.1930 C   0  0  2  0  0  0  0  0  0  6  0  0
   -4.2830   30.2260   31.4590 C   0  0  0  0  0  0  0  0  0  7  0  0
   -4.8900   29.8370   29.0450 C   0  0  0  0  0  0  0  0  0  5  0  0
   -5.3140   28.4300   29.4480 C   0  0  0  0  0  0  0  0  0  4  0  0
   -5.6050   27.5660   28.2600 C   0  0  0  0  0  0  0  0  0  3  0  0
   -6.7120   26.8880   27.9970 C   0  0  0  0  0  0  0  0  0  1  0  0
   -7.0980   26.4840   26.6080 C   0  0  0  0  0  0  0  0  0  0  0  0
   -7.6720   26.4530   29.0630 C   0  0  0  0  0  0  0  0  0  2  0  0
  1  2  1  0
  3  2  1  0
  4  3  1  6
  5  4  1  0
  5  6  1  1
  7  5  1  0
  8  5  1  0
  8  9  1  1
 10  8  1  0
 11 10  1  0
 12 11  1  0
 12  4  1  0
 12 13  1  1
 14 12  1  0
 14  1  2  0
 14 15  1  0
 16 15  1  0
 17 16  1  0
 17 18  1  1
 19 17  1  0
 19  1  1  0
 19 20  1  6
 21 19  1  0
 22 21  1  0
 23 22  1  6
 23 17  1  0
 24 23  1  0
 24 25  1  1
 26 24  1  0
 27 26  1  0
 28 27  1  0
 29 28  2  3
 30 29  1  0
 31 29  1  0
M  END
$$$$
