
     RDKit          3D

 20 19  0  0  0  0  0  0  0  0999 V2000
  -45.0230   30.8670    6.9030 C   0  0  0  0  0  0  0  0  0 16  0  0
  -45.7980   29.6950    7.4890 C   0  0  0  0  0  0  0  0  0 17  0  0
  -45.3970   29.3680    8.7230 O   0  0  0  0  0  0  0  0  0 18  0  0
  -45.7010   31.8410    5.9950 C   0  0  0  0  0  0  0  0  0 15  0  0
  -46.3870   31.2960    4.7510 C   0  0  0  0  0  0  0  0  0 14  0  0
  -46.9410   32.4820    3.9780 C   0  0  0  0  0  0  0  0  0 13  0  0
  -46.3420   33.8700    4.2030 C   0  0  0  0  0  0  0  0  0 12  0  0
  -47.2150   35.0290    4.5720 C   0  0  0  0  0  0  0  0  0 11  0  0
  -47.7660   35.8370    3.4310 C   0  0  0  0  0  0  0  0  0 10  0  0
  -47.2840   37.1980    3.5850 C   0  0  0  0  0  0  0  0  0  9  0  0
  -47.9470   38.3110    3.6800 C   0  0  0  0  0  0  0  0  0  8  0  0
  -47.0800   39.5390    3.5850 C   0  0  0  0  0  0  0  0  0  7  0  0
  -47.5430   40.9130    3.1480 C   0  0  0  0  0  0  0  0  0  6  0  0
  -47.1700   41.0720    1.6910 C   0  0  0  0  0  0  0  0  0  5  0  0
  -47.1700   42.5320    1.4880 C   0  0  0  0  0  0  0  0  0  4  0  0
  -47.2770   43.1070    0.1050 C   0  0  0  0  0  0  0  0  0  3  0  0
  -46.8190   42.3340   -1.0950 C   0  0  0  0  0  0  0  0  0  2  0  0
  -45.3770   42.2970   -1.2830 C   0  0  0  0  0  0  0  0  0  1  0  0
  -45.0430   42.1240   -2.7270 C   0  0  0  0  0  0  0  0  0  0  0  0
  -46.6990   29.1530    6.6920 O   0  0  0  0  0  0  0  0  0 19  0  0
  2  1  1  0
  3  2  2  0
  4  1  1  0
  5  4  1  0
  6  5  1  0
  7  6  1  0
  8  7  1  0
  9  8  1  0
 10  9  1  0
 11 10  2  3
 12 11  1  0
 13 12  1  0
 14 13  1  0
 15 14  1  0
 16 15  1  0
 17 16  1  0
 18 17  1  0
 19 18  1  0
 20  2  1  0
M  END
$$$$
