
     RDKit          3D

 33 36  0  0  0  0  0  0  0  0999 V2000
   23.3490   11.6870  -18.2500 C   0  0  0  0  0  0  0  0  0  6  0  0
   23.9220   12.9270  -18.5150 C   0  0  0  0  0  0  0  0  0  5  0  0
   23.2230   13.8710  -19.2600 C   0  0  0  0  0  0  0  0  0  4  0  0
   23.7990   15.1240  -19.5250 C   0  0  1  0  0  0  0  0  0  1  0  0
   23.2410   15.6620  -20.5980 F   0  0  0  0  0  0  0  0  0  0  0  0
   23.6060   15.9310  -18.5000 F   0  0  0  0  0  0  0  0  0  2  0  0
   25.1100   14.9950  -19.7240 F   0  0  0  0  0  0  0  0  0  3  0  0
   21.9480   13.5520  -19.7290 C   0  0  0  0  0  0  0  0  0 32  0  0
   21.3740   12.3070  -19.4640 C   0  0  0  0  0  0  0  0  0 31  0  0
   22.0750   11.3660  -18.7130 C   0  0  0  0  0  0  0  0  0  7  0  0
   21.5650   10.1570  -18.4370 N   0  0  0  0  0  0  0  0  0  8  0  0
   22.4100    9.1310  -18.4870 C   0  0  0  0  0  0  0  0  0  9  0  0
   22.6940    8.4300  -17.3210 C   0  0  0  0  0  0  0  0  0 10  0  0
   23.5640    7.3470  -17.3450 C   0  0  0  0  0  0  0  0  0 11  0  0
   24.1500    6.9590  -18.5440 C   0  0  0  0  0  0  0  0  0 12  0  0
   23.8660    7.6550  -19.7300 N   0  0  0  0  0  0  0  0  0 13  0  0
   22.9860    8.7450  -19.6930 C   0  0  0  0  0  0  0  0  0 14  0  0
   20.1600    9.9000  -18.0540 C   0  0  1  0  0  0  0  0  0 15  0  0
   19.4080   11.1440  -17.6560 C   0  0  0  0  0  0  0  0  0 16  0  0
   17.9910   10.7420  -17.2080 C   0  0  0  0  0  0  0  0  0 17  0  0
   19.4290    9.2440  -19.2010 C   0  0  0  0  0  0  0  0  0 30  0  0
   18.1760    8.5910  -18.6590 C   0  0  0  0  0  0  0  0  0 29  0  0
   17.6460    9.3120  -17.4740 N   0  0  0  0  0  0  0  0  0 18  0  0
   16.7880    8.6730  -16.6600 C   0  0  0  0  0  0  0  0  0 19  0  0
   16.3060    9.3020  -15.5780 N   0  0  0  0  0  0  0  0  0 28  0  0
   15.4040    8.6590  -14.7190 C   0  0  0  0  0  0  0  0  0 27  0  0
   14.9990    7.3560  -14.9840 C   0  0  0  0  0  0  0  0  0 22  0  0
   14.1000    6.7250  -14.1280 C   0  0  1  0  0  0  0  0  0 23  0  0
   12.9460    7.3990  -14.1320 F   0  0  0  0  0  0  0  0  0 24  0  0
   13.8860    5.4680  -14.5360 F   0  0  0  0  0  0  0  0  0 25  0  0
   14.5970    6.7120  -12.8880 F   0  0  0  0  0  0  0  0  0 26  0  0
   15.4960    6.7050  -16.1080 C   0  0  0  0  0  0  0  0  0 21  0  0
   16.3890    7.3680  -16.9440 C   0  0  0  0  0  0  0  0  0 20  0  0
  2  1  2  0
  3  2  1  0
  4  3  1  0
  4  5  1  6
  6  4  1  0
  7  4  1  0
  8  3  2  0
  9  8  1  0
 10  9  2  0
 10  1  1  0
 11 10  1  0
 12 11  1  0
 13 12  2  0
 14 13  1  0
 15 14  2  0
 16 15  1  0
 17 16  2  0
 17 12  1  0
 18 11  1  6
 19 18  1  0
 20 19  1  0
 21 18  1  0
 22 21  1  0
 23 22  1  0
 23 20  1  0
 24 23  1  0
 25 24  2  0
 26 25  1  0
 27 26  2  0
 28 27  1  0
 28 29  1  1
 30 28  1  0
 31 28  1  0
 32 27  1  0
 33 32  2  0
 33 24  1  0
M  END
$$$$
