
     RDKit          3D

 21 24  0  0  0  0  0  0  0  0999 V2000
    6.1480   15.7510   19.7380 C   0  0  0  0  0  0  0  0  0 14  0  0
    6.5560   13.5290   18.6220 N   0  0  0  0  0  0  0  0  0  2  0  0
    6.5260   16.8610   19.9230 O   0  0  0  0  0  0  0  0  0 15  0  0
    7.0050   14.5410   19.5520 C   0  0  1  0  0  0  0  0  0  3  0  0
    8.4860   14.9770   19.1050 C   0  0  0  0  0  0  0  0  0  4  0  0
    9.2880   13.6290   19.0070 C   0  0  0  0  0  0  0  0  0  5  0  0
    4.6830   12.2990   17.9300 O   0  0  0  0  0  0  0  0  0  0  0  0
    2.3890   15.6530   19.4770 C   0  0  0  0  0  0  0  0  0 18  0  0
    2.9060   14.2480   18.9590 C   0  0  0  0  0  0  0  0  0 19  0  0
    3.4880   16.3780   19.9010 C   0  0  0  0  0  0  0  0  0 17  0  0
    5.1760   13.1660   18.6020 C   0  0  0  0  0  0  0  0  0  1  0  0
    4.3700   14.0780   19.5780 C   0  0  1  0  0  0  0  0  0 20  0  0
    4.7430   15.4010   19.7180 N   0  0  0  0  0  0  0  0  0 16  0  0
    9.5980   13.1590   17.7400 C   0  0  0  0  0  0  0  0  0  6  0  0
    9.7370   12.6980   19.9020 C   0  0  0  0  0  0  0  0  0 13  0  0
   10.2490   11.9690   17.8760 N   0  0  0  0  0  0  0  0  0  7  0  0
   10.3410   11.6730   19.2180 C   0  0  0  0  0  0  0  0  0  8  0  0
    9.6830   12.6680   21.3060 C   0  0  0  0  0  0  0  0  0 12  0  0
   10.8360   10.5510   21.3060 C   0  0  0  0  0  0  0  0  0 10  0  0
   10.8930   10.5820   19.9190 C   0  0  0  0  0  0  0  0  0  9  0  0
   10.2300   11.5970   21.9940 C   0  0  0  0  0  0  0  0  0 11  0  0
  3  1  2  0
  4  2  1  6
  4  1  1  0
  5  4  1  0
  5  6  1  6
  9  8  1  0
  8 10  1  1
 11  7  2  0
 11  2  1  0
 12 11  1  6
  9 12  1  1
 13 12  1  0
 10 13  1  6
 13  1  1  0
  6 14  2  0
 15  6  1  0
 16 14  1  0
 17 16  1  0
 17 15  2  0
 18 15  1  0
 20 19  2  0
 20 17  1  0
 21 19  1  0
 21 18  2  0
M  END
$$$$
