
     RDKit          3D

 21 24  0  0  0  0  0  0  0  0999 V2000
  -23.0230    0.3140   14.3890 C   0  0  0  0  0  0  0  0  0  2  0  0
  -24.3830    0.7780   13.8200 C   0  0  1  0  0  0  0  0  0  1  0  0
  -25.6160   -0.6320   15.6070 C   0  0  0  0  0  0  0  0  0 12  0  0
  -26.8190   -1.5300   15.9640 C   0  0  0  0  0  0  0  0  0 13  0  0
  -28.1240   -1.0310   15.3640 C   0  0  1  0  0  0  0  0  0 14  0  0
  -27.9360   -0.9180   13.8440 C   0  0  1  0  0  0  0  0  0 20  0  0
  -29.3720   -0.7720   13.3010 C   0  0  0  0  0  0  0  0  0 19  0  0
  -30.1860   -1.7170   14.2080 C   0  0  0  0  0  0  0  0  0 18  0  0
  -29.3100   -1.9860   15.4220 C   0  0  0  0  0  0  0  0  0 16  0  0
  -28.6400    0.2590   16.0560 C   0  0  0  0  0  0  0  0  0 15  0  0
  -24.7440    2.1550   14.4400 C   0  0  0  0  0  0  0  0  0  0  0  0
  -21.8230    1.0110   13.7390 C   0  0  0  0  0  0  0  0  0  3  0  0
  -21.8310    0.8780   12.2430 C   0  0  0  0  0  0  0  0  0  4  0  0
  -23.1410    0.9170   11.6180 C   0  0  0  0  0  0  0  0  0  6  0  0
  -24.3010    0.9520   12.3000 C   0  0  0  0  0  0  0  0  0  7  0  0
  -25.5990    1.1850   11.5690 C   0  0  0  0  0  0  0  0  0  8  0  0
  -26.6830    0.1750   11.9360 C   0  0  0  0  0  0  0  0  0  9  0  0
  -26.8420    0.0700   13.4500 C   0  0  2  0  0  0  0  0  0 10  0  0
  -25.4830   -0.3030   14.1090 C   0  0  1  0  0  0  0  0  0 11  0  0
  -20.8100    0.7200   11.5710 O   0  0  0  0  0  0  0  0  0  5  0  0
  -29.5160   -2.8200   16.2840 O   0  0  0  0  0  0  0  0  0 17  0  0
  2  1  1  0
  4  3  1  0
  5  4  1  0
  6  5  1  0
  6  7  1  6
  8  7  1  0
  9  8  1  0
  9  5  1  0
  5 10  1  1
  2 11  1  1
 12  1  1  0
 13 12  1  0
 14 13  1  0
 15 14  2  0
 15  2  1  0
 16 15  1  0
 17 16  1  0
 18  6  1  0
 18 17  1  6
 19 18  1  0
 19  3  1  1
 19  2  1  0
 20 13  2  0
 21  9  2  0
M  END
$$$$
