
     RDKit          3D

 30 33  0  0  0  0  0  0  0  0999 V2000
  -38.2760    1.5830    5.2670 C   0  0  0  0  0  0  0  0  0 20  0  0
  -37.2660    0.4870    5.5880 C   0  0  2  0  0  0  0  0  0 22  0  0
  -36.9060   -0.2470    4.2870 C   0  0  0  0  0  0  0  0  0 23  0  0
  -38.1510   -0.9730    3.7990 C   0  0  0  0  0  0  0  0  0 24  0  0
  -38.5090   -2.2440    4.3190 C   0  0  0  0  0  0  0  0  0 25  0  0
  -39.6530   -2.9140    3.8430 C   0  0  0  0  0  0  0  0  0 26  0  0
  -40.4560   -2.2940    2.8620 C   0  0  0  0  0  0  0  0  0 27  0  0
  -41.0070   -0.5220    5.9350 C   0  0  0  0  0  0  0  0  0  5  0  0
  -42.3400   -0.5060    6.6030 C   0  0  0  0  0  0  0  0  0  6  0  0
  -43.6170   -0.1570    6.1130 C   0  0  0  0  0  0  0  0  0 17  0  0
  -39.1130   -1.1400    8.1820 O   0  0  0  0  0  0  0  0  0  3  0  0
  -38.8700   -0.4970    7.1720 C   0  0  0  0  0  0  0  0  0  2  0  0
  -37.6580   -0.4820    6.6110 N   0  0  0  0  0  0  0  0  0  1  0  0
  -36.5530   -1.3420    7.0400 C   0  0  0  0  0  0  0  0  0  0  0  0
  -40.1110   -1.0250    2.3560 C   0  0  0  0  0  0  0  0  0 28  0  0
  -38.9600   -0.3720    2.8350 C   0  0  0  0  0  0  0  0  0 29  0  0
  -37.9310    2.6270    4.6430 O   0  0  0  0  0  0  0  0  0 21  0  0
  -39.5230    1.4010    5.6440 N   0  0  0  0  0  0  0  0  0 18  0  0
  -40.5370    2.2900    5.1240 C   0  0  0  0  0  0  0  0  0 19  0  0
  -39.9660    0.3680    6.6170 C   0  0  1  0  0  0  0  0  0  4  0  0
  -44.1350    0.4210    4.9550 C   0  0  0  0  0  0  0  0  0 13  0  0
  -43.4030    0.7300    3.7900 N   0  0  0  0  0  0  0  0  0 14  0  0
  -44.0430    0.7850    2.7260 O   0  0  0  0  0  0  0  0  0 15  0  0
  -42.1800    0.9730    3.7550 O   0  0  0  0  0  0  0  0  0 16  0  0
  -42.4850   -0.9660    7.9120 C   0  0  0  0  0  0  0  0  0  7  0  0
  -43.8710   -0.9050    8.2670 N   0  0  0  0  0  0  0  0  0  8  0  0
  -44.5300   -0.4090    7.1740 C   0  0  0  0  0  0  0  0  0  9  0  0
  -45.8790   -0.0950    7.0670 C   0  0  0  0  0  0  0  0  0 10  0  0
  -46.3970    0.4510    5.8840 C   0  0  0  0  0  0  0  0  0 11  0  0
  -45.5050    0.6890    4.8250 C   0  0  0  0  0  0  0  0  0 12  0  0
  2  1  1  0
  2  3  1  6
  4  3  1  0
  5  4  2  0
  6  5  1  0
  7  6  2  0
  9  8  1  0
 10  9  1  0
 12 11  2  0
 13 12  1  0
 13  2  1  0
 14 13  1  0
 15  7  1  0
 16 15  2  0
 16  4  1  0
 17  1  2  0
 18  1  1  0
 19 18  1  0
 20 18  1  0
 20 12  1  0
 20  8  1  6
 21 10  2  0
 21 22  1  0
 23 22  2  0
 24 22  1  0
 25  9  2  0
 26 25  1  0
 27 26  1  0
 27 10  1  0
 27 28  2  0
 29 28  1  0
 30 21  1  0
 30 29  2  0
M  CHG  2  22   1  24  -1
M  END
$$$$
