
     RDKit          3D

 44 44  0  0  0  0  0  0  0  0999 V2000
    1.9400   42.5430   22.5140 C   0  0  0  0  0  0  0  0  0  7  0  0
    1.0690   43.4240   22.3790 O   0  0  0  0  0  0  0  0  0  8  0  0
    1.9570   41.6250   23.7430 C   0  0  1  0  0  0  0  0  0  6  0  0
    2.0280   42.4260   25.0730 C   0  0  2  0  0  0  0  0  0 42  0  0
    3.2410   43.4370   25.1120 C   0  0  0  0  0  0  0  0  0 41  0  0
    3.2940   44.1820   26.4850 C   0  0  2  0  0  0  0  0  0 39  0  0
    4.5070   45.1370   26.4930 C   0  0  0  0  0  0  0  0  0 38  0  0
    4.5480   45.9140   27.8390 C   0  0  2  0  0  0  0  0  0 36  0  0
    5.3730   47.2180   27.6030 C   0  0  0  0  0  0  0  0  0 35  0  0
    5.3900   48.0660   28.9050 C   0  0  2  0  0  0  0  0  0 33  0  0
    6.2770   49.3400   28.6700 C   0  0  0  0  0  0  0  0  0 32  0  0
    6.1330   50.3140   29.9350 C   0  0  2  0  0  0  0  0  0 30  0  0
    6.9760   51.6010   29.7550 C   0  0  0  0  0  0  0  0  0 29  0  0
    6.2200   52.6600   28.9370 C   0  0  2  0  0  0  0  0  0 27  0  0
    7.1640   53.8620   28.5750 C   0  0  0  0  0  0  0  0  0 26  0  0
    8.4410   53.6060   27.6830 C   0  0  1  0  0  0  0  0  0 24  0  0
    7.9280   52.9930   26.3640 C   0  0  0  0  0  0  0  0  0 22  0  0
    7.9040   51.6010   26.2230 C   0  0  0  0  0  0  0  0  0 21  0  0
    7.2540   50.9610   25.1330 C   0  0  0  0  0  0  0  0  0 20  0  0
    7.2590   49.5800   24.9690 C   0  0  0  0  0  0  0  0  0 19  0  0
    0.7080   40.7400   23.6630 C   0  0  0  0  0  0  0  0  0  5  0  0
    6.6340   48.9000   23.9030 C   0  0  0  0  0  0  0  0  0 18  0  0
    6.6770   47.4750   23.8040 C   0  0  0  0  0  0  0  0  0 17  0  0
    5.9580   46.8570   22.7570 C   0  0  0  0  0  0  0  0  0 16  0  0
    5.9620   45.5100   22.4590 C   0  0  0  0  0  0  0  0  0 15  0  0
    5.2300   45.0970   21.3010 C   0  0  0  0  0  0  0  0  0 14  0  0
    5.0510   43.7270   21.0380 C   0  0  0  0  0  0  0  0  0 13  0  0
    4.3200   43.2670   19.8820 C   0  0  0  0  0  0  0  0  0 12  0  0
    2.8370   43.2720   20.3190 C   0  0  1  0  0  0  0  0  0 10  0  0
    1.9130   42.5720   19.3160 C   0  0  0  0  0  0  0  0  0 11  0  0
    7.3020   53.9790   25.2980 C   0  0  0  0  0  0  0  0  0 23  0  0
    0.5250   39.9790   22.2850 C   0  0  0  0  0  0  0  0  0  4  0  0
    2.8570   42.3610   21.5060 O   0  0  0  0  0  0  0  0  0  9  0  0
   -0.7230   39.1320   22.1900 C   0  0  0  0  0  0  0  0  0  3  0  0
   -0.7180   38.4850   20.8040 C   0  0  0  0  0  0  0  0  0  2  0  0
   -1.9440   37.6070   20.4160 C   0  0  0  0  0  0  0  0  0  1  0  0
   -3.0180   38.4750   19.6890 C   0  0  0  0  0  0  0  0  0  0  0  0
    2.1770   41.4280   26.1190 O   0  0  0  0  0  0  0  0  0 43  0  0
    3.5200   43.1780   27.5510 O   0  0  0  0  0  0  0  0  0 40  0  0
    5.2390   45.0570   28.8230 O   0  0  0  0  0  0  0  0  0 37  0  0
    6.0010   47.2440   29.9010 O   0  0  0  0  0  0  0  0  0 34  0  0
    6.6100   49.6320   31.1310 O   0  0  0  0  0  0  0  0  0 31  0  0
    5.0090   53.0470   29.6200 O   0  0  0  0  0  0  0  0  0 28  0  0
    8.9690   54.9770   27.5480 O   0  0  0  0  0  0  0  0  0 25  0  0
  1  2  2  0
  3  1  1  0
  4  3  1  0
  5  4  1  0
  6  5  1  0
  7  6  1  0
  8  7  1  0
  9  8  1  0
 10  9  1  0
 11 10  1  0
 12 11  1  0
 13 12  1  0
 14 13  1  0
 15 14  1  0
 16 15  1  0
 17 16  1  0
 18 17  2  3
 19 18  1  0
 20 19  2  3
  3 21  1  1
 22 20  1  0
 23 22  2  3
 24 23  1  0
 25 24  2  3
 26 25  1  0
 27 26  2  3
 28 27  1  0
 29 28  1  0
 29 30  1  6
 17 31  1  0
 32 21  1  0
 33 29  1  0
 33  1  1  0
 34 32  1  0
 35 34  1  0
 36 35  1  0
 37 36  1  0
  4 38  1  1
  6 39  1  1
  8 40  1  1
 10 41  1  1
 12 42  1  1
 14 43  1  1
 16 44  1  6
M  END
$$$$
