
     RDKit          3D

 11 12  0  0  0  0  0  0  0  0999 V2000
  -53.9200   54.2470  -23.5830 N   0  0  0  0  0  0  0  0  0  8  0  0
  -54.7260   53.3170  -24.1070 C   0  0  0  0  0  0  0  0  0  7  0  0
  -54.4300   53.1230  -25.3900 N   0  0  0  0  0  0  0  0  0  6  0  0
  -53.3860   53.9120  -25.6320 C   0  0  0  0  0  0  0  0  0  5  0  0
  -53.0690   54.6200  -24.5400 C   0  0  0  0  0  0  0  0  0  4  0  0
  -52.0390   55.5560  -24.4120 C   0  0  0  0  0  0  0  0  0  3  0  0
  -52.1340   56.6420  -23.5440 C   0  0  0  0  0  0  0  0  0  2  0  0
  -51.1000   57.5700  -23.3940 C   0  0  0  0  0  0  0  0  0  1  0  0
  -49.9590   57.4930  -24.1910 C   0  0  0  0  0  0  0  0  0  0  0  0
  -49.8230   56.3900  -25.0360 C   0  0  0  0  0  0  0  0  0 10  0  0
  -50.8470   55.4430  -25.1280 C   0  0  0  0  0  0  0  0  0  9  0  0
  2  1  1  0
  3  2  2  0
  4  3  1  0
  5  4  2  0
  5  1  1  0
  6  5  1  0
  7  6  2  0
  8  7  1  0
  9  8  2  0
 10  9  1  0
 11 10  2  0
 11  6  1  0
M  END
$$$$
