
     RDKit          3D

 46 48  0  0  0  0  0  0  0  0999 V2000
   21.2830   -6.1460    3.0600 N   0  0  0  0  0  0  0  0  0 20  0  0
   26.1940   -3.3760    7.9490 C   0  0  2  0  0  0  0  0  0 40  0  0
   26.0950   -4.3420    9.0140 O   0  0  0  0  0  0  0  0  0 41  0  0
   26.4160   -4.0990    6.6030 C   0  0  1  0  0  0  0  0  0 42  0  0
   24.1660   -4.7210    6.2200 O   0  0  0  0  0  0  0  0  0 44  0  0
   25.3210   -5.0770    6.2850 C   0  0  0  0  0  0  0  0  0 43  0  0
   25.5580   -6.3470    6.0570 O   0  0  0  0  0  0  0  0  0 45  0  0
   26.4980   -3.0370    5.5270 C   0  0  2  0  0  0  0  0  0 24  0  0
   24.7570   -2.8160    3.0000 O   0  0  0  0  0  0  0  0  0 12  0  0
   26.8610   -3.7190    4.2030 C   0  0  0  0  0  0  0  0  0 23  0  0
   22.0760   -3.6910    3.5520 O   0  0  0  0  0  0  0  0  0 22  0  0
   26.1820   -3.0620    2.9820 C   0  0  2  0  0  0  0  0  0 11  0  0
   21.5110   -6.3730    0.1510 O   0  0  0  0  0  0  0  0  0 18  0  0
   24.1360   -3.8910    2.2530 C   0  0  2  0  0  0  0  0  0 13  0  0
   23.7090   -3.4870    0.9400 O   0  0  0  0  0  0  0  0  0 14  0  0
   23.0760   -4.6050    3.0970 C   0  0  2  0  0  0  0  0  0 21  0  0
   32.1800    6.6820    2.8960 O   0  0  0  0  0  0  0  0  0 38  0  0
   22.4440   -5.7700    2.3110 C   0  0  2  0  0  0  0  0  0 19  0  0
   32.6470    5.0620    1.4430 O   0  0  0  0  0  0  0  0  0 37  0  0
   22.0250   -5.2880    0.9160 C   0  0  1  0  0  0  0  0  0 17  0  0
   28.5400    1.2950    5.9710 O   0  0  0  0  0  0  0  0  0 30  0  0
   23.1540   -4.5820    0.1730 C   0  0  1  0  0  0  0  0  0 15  0  0
   26.5820   -0.5550    7.0120 O   0  0  0  0  0  0  0  0  0 27  0  0
   22.6440   -3.9590   -1.1100 C   0  0  0  0  0  0  0  0  0 16  0  0
   27.6480   -2.1800    5.8550 O   0  0  0  0  0  0  0  0  0 25  0  0
   26.8920   -1.8400    2.4480 C   0  0  0  0  0  0  0  0  0 10  0  0
   26.8520   -0.6510    2.9520 C   0  0  0  0  0  0  0  0  0  9  0  0
   27.6400    0.2440    2.1490 C   0  0  0  0  0  0  0  0  0  8  0  0
   27.6710    1.5210    2.4400 C   0  0  0  0  0  0  0  0  0  7  0  0
   28.4850    2.4050    1.6230 C   0  0  0  0  0  0  0  0  0  6  0  0
   28.5750    3.7060    1.9090 C   0  0  0  0  0  0  0  0  0  5  0  0
   29.3560    4.7320    1.1900 C   0  0  0  0  0  0  0  0  0  4  0  0
   29.5240    5.9480    1.7820 C   0  0  0  0  0  0  0  0  0  3  0  0
   30.2380    7.2430    1.3580 C   0  0  0  0  0  0  0  0  0  2  0  0
   31.7570    7.4390    1.7600 C   0  0  1  0  0  0  0  0  0  1  0  0
   32.2250    8.8670    2.1110 C   0  0  0  0  0  0  0  0  0  0  0  0
   32.4170    5.3480    2.5950 C   0  0  0  0  0  0  0  0  0 36  0  0
   32.3180    4.4330    3.7360 C   0  0  0  0  0  0  0  0  0 35  0  0
   31.6460    3.3250    3.5930 C   0  0  0  0  0  0  0  0  0 34  0  0
   31.4900    2.4140    4.7380 C   0  0  0  0  0  0  0  0  0 33  0  0
   30.8250    1.2870    4.5400 C   0  0  0  0  0  0  0  0  0 32  0  0
   30.6670    0.3240    5.6700 C   0  0  0  0  0  0  0  0  0 31  0  0
   29.2090    0.0200    5.8950 C   0  0  1  0  0  0  0  0  0 29  0  0
   29.0520   -0.8540    7.1660 C   0  0  0  0  0  0  0  0  0 28  0  0
   27.6570   -1.5160    7.0910 C   0  0  1  0  0  0  0  0  0 26  0  0
   27.3730   -2.4490    8.2630 C   0  0  0  0  0  0  0  0  0 39  0  0
  2  3  1  1
  4  2  1  0
  6  5  2  0
  4  6  1  6
  7  6  1  0
  8  4  1  0
  8 10  1  6
 12 10  1  0
 12  9  1  1
 14  9  1  1
 15 14  1  0
 16 14  1  0
 16 11  1  6
 18  1  1  1
 18 16  1  0
 20 13  1  6
 20 18  1  0
 22 20  1  0
 22 15  1  0
 22 24  1  6
 25  8  1  0
 26 12  1  0
 27 26  2  3
 28 27  1  0
 29 28  2  3
 30 29  1  0
 31 30  2  3
 32 31  1  0
 33 32  2  3
 34 33  1  0
 35 34  1  0
 35 17  1  0
 35 36  1  1
 37 19  2  0
 37 17  1  0
 38 37  1  0
 39 38  2  3
 40 39  1  0
 41 40  2  3
 42 41  1  0
 43 42  1  0
 43 21  1  1
 44 43  1  0
 45 23  1  6
 45 44  1  0
 45 25  1  0
 46  2  1  0
 46 45  1  0
M  END
$$$$
