
     RDKit          3D

 35 37  0  0  0  0  0  0  0  0999 V2000
    5.6940   36.7040   14.4020 O   0  0  0  0  0  0  0  0  0 33  0  0
    9.5650   39.1750   15.8580 C   0  0  0  0  0  0  0  0  0 14  0  0
    8.6170   38.5170   18.2830 O   0  0  0  0  0  0  0  0  0 12  0  0
    8.6570   39.1930   17.0330 C   0  0  2  0  0  0  0  0  0 13  0  0
    7.4930   38.1520   17.4730 C   0  0  2  0  0  0  0  0  0 11  0  0
    5.3080   37.8120   14.4630 C   0  0  0  0  0  0  0  0  0 32  0  0
    4.9930   38.5030   15.6230 O   0  0  0  0  0  0  0  0  0 34  0  0
    5.0660   37.8590   17.0260 C   0  0  1  0  0  0  0  0  0  9  0  0
    6.1860   38.6140   17.8460 C   0  0  0  0  0  0  0  0  0 10  0  0
    3.6080   38.1250   17.5810 C   0  0  0  0  0  0  0  0  0  1  0  0
    2.5790   37.2570   16.8730 C   0  0  0  0  0  0  0  0  0  0  0  0
    3.3380   39.0130   18.5810 C   0  0  0  0  0  0  0  0  0  2  0  0
    2.0900   39.4430   19.2130 C   0  0  0  0  0  0  0  0  0  3  0  0
    0.9430   39.5270   18.4430 N   0  0  0  0  0  0  0  0  0  8  0  0
   -0.1120   39.9620   19.1790 C   0  0  0  0  0  0  0  0  0  6  0  0
   -1.4350   40.0930   18.5310 C   0  0  0  0  0  0  0  0  0  7  0  0
    1.9220   39.8390   20.4860 C   0  0  0  0  0  0  0  0  0  4  0  0
    0.2960   40.2960   20.7660 S   0  0  0  0  0  0  0  0  0  5  0  0
    5.1050   38.6460   13.1720 C   0  0  0  0  0  0  0  0  0 31  0  0
    3.7640   39.5070   13.1110 C   0  0  2  0  0  0  0  0  0 29  0  0
    2.7530   38.5530   13.3900 O   0  0  0  0  0  0  0  0  0 30  0  0
    3.5290   40.3910   11.7640 C   0  0  1  0  0  0  0  0  0 26  0  0
    3.4150   39.4100   10.5450 C   0  0  0  0  0  0  0  0  0 27  0  0
    2.1790   41.1000   11.8390 C   0  0  0  0  0  0  0  0  0 28  0  0
    4.7720   41.4070   11.4750 C   0  0  0  0  0  0  0  0  0 24  0  0
    5.4510   41.3180   10.4030 O   0  0  0  0  0  0  0  0  0 25  0  0
    5.2510   42.5520   12.4510 C   0  0  2  0  0  0  0  0  0 22  0  0
    5.3570   43.8100   11.5550 C   0  0  0  0  0  0  0  0  0 23  0  0
    6.3050   41.9700   13.3450 C   0  0  1  0  0  0  0  0  0 20  0  0
    7.5420   41.7630   12.5940 O   0  0  0  0  0  0  0  0  0 21  0  0
    6.5080   42.9630   14.4720 C   0  0  1  0  0  0  0  0  0 18  0  0
    5.2810   43.0640   15.2480 C   0  0  0  0  0  0  0  0  0 19  0  0
    7.4690   42.5420   15.5290 C   0  0  0  0  0  0  0  0  0 17  0  0
    8.0530   41.0760   15.3970 C   0  0  0  0  0  0  0  0  0 16  0  0
    7.6140   40.4900   16.8430 C   0  0  0  0  0  0  0  0  0 15  0  0
  4  2  1  6
  4  3  1  0
  5  4  1  0
  5  3  1  0
  6  1  2  0
  7  6  1  0
  8  7  1  0
  9  8  1  0
  5  9  1  1
  8 10  1  1
 11 10  1  0
 12 10  2  3
 13 12  1  0
 14 13  1  0
 15 14  2  0
 16 15  1  0
 17 13  2  0
 18 17  1  0
 18 15  1  0
 19  6  1  0
 20 19  1  0
 20 21  1  6
 22 20  1  0
 22 23  1  6
 24 22  1  0
 25 22  1  0
 26 25  2  0
 27 25  1  0
 27 28  1  6
 29 27  1  0
 29 30  1  6
 31 29  1  0
 31 32  1  1
 33 31  1  0
 34 33  1  0
 35 34  1  0
 35  4  1  0
M  END
$$$$
