
     RDKit          3D

 35 39  0  0  0  0  0  0  0  0999 V2000
   -5.7980   28.5500   -5.2270 C   0  0  0  0  0  0  0  0  0 27  0  0
   -4.6090   26.9320  -11.1060 C   0  0  0  0  0  0  0  0  0  1  0  0
   -4.2440   25.5450   -3.4080 C   0  0  0  0  0  0  0  0  0  8  0  0
   -3.5490   26.0100   -1.0030 C   0  0  0  0  0  0  0  0  0 10  0  0
   -3.5070   26.2720   -2.3200 C   0  0  0  0  0  0  0  0  0  9  0  0
   -4.4390   26.2020    2.9420 C   0  0  0  0  0  0  0  0  0 15  0  0
   -6.6260   27.7440   -1.7490 C   0  0  0  0  0  0  0  0  0 24  0  0
   -4.9490   26.4110   -4.4740 C   0  0  1  0  0  0  0  0  0  7  0  0
   -6.6490   27.7040   -3.0650 C   0  0  0  0  0  0  0  0  0 25  0  0
   -4.3790   24.9780   -0.3400 C   0  0  0  0  0  0  0  0  0 11  0  0
   -3.4840   25.3680    2.0790 C   0  0  0  0  0  0  0  0  0 14  0  0
   -5.9490   25.9600    2.7850 C   0  0  0  0  0  0  0  0  0 16  0  0
   -7.7750   27.6600   -0.8680 C   0  0  0  0  0  0  0  0  0 22  0  0
   -8.7980   27.2620    1.4310 C   0  0  0  0  0  0  0  0  0 19  0  0
   -7.6840   27.6040    0.4730 C   0  0  0  0  0  0  0  0  0 21  0  0
   -6.7710   27.2490    2.6450 C   0  0  1  0  0  0  0  0  0 17  0  0
   -4.2700   24.6720    1.0310 N   0  0  0  0  0  0  0  0  0 13  0  0
   -5.4140   26.7710   -9.8070 C   0  0  2  0  0  0  0  0  0  2  0  0
   -5.4450   27.7910   -3.9470 C   0  0  2  0  0  0  0  0  0 26  0  0
   -3.9230   25.6540  -11.5470 C   0  0  0  0  0  0  0  0  0  0  0  0
   -6.9660   28.6160  -10.7930 C   0  0  0  0  0  0  0  0  0 32  0  0
   -6.6020   27.7270   -9.6070 C   0  0  2  0  0  0  0  0  0 31  0  0
   -6.2840   28.5340   -8.3390 C   0  0  0  0  0  0  0  0  0 30  0  0
   -6.4720   27.8130    1.2440 C   0  0  0  0  0  0  0  0  0 33  0  0
   -5.5720   27.5030   -7.5160 C   0  0  1  0  0  0  0  0  0 29  0  0
   -4.5420   27.0170   -8.5410 C   0  0  1  0  0  0  0  0  0  3  0  0
   -4.8310   28.0310   -6.2760 C   0  0  2  0  0  0  0  0  0 28  0  0
   -4.0210   26.8940   -5.6150 C   0  0  2  0  0  0  0  0  0  6  0  0
   -3.4790   25.9110   -6.6220 C   0  0  0  0  0  0  0  0  0  5  0  0
   -3.6770   25.9500   -7.9380 C   0  0  0  0  0  0  0  0  0  4  0  0
   -8.2050   27.0220    2.6190 N   0  0  0  0  0  0  0  0  0 18  0  0
   -5.3170   24.4040   -0.8930 O   0  0  0  0  0  0  0  0  0 12  0  0
   -8.9850   27.6260   -1.4660 O   0  0  0  0  0  0  0  0  0 23  0  0
  -10.0220   27.2770    1.2270 O   0  0  0  0  0  0  0  0  0 20  0  0
   -5.4100   28.2840    0.9030 O   0  0  0  0  0  0  0  0  0 34  0  0
  5  4  2  3
  3  5  1  6
  8  3  1  1
  9  7  2  3
 10  4  1  0
  6 11  1  6
 12  6  1  0
 13  7  1  0
 15 14  1  0
 15 13  2  3
 12 16  1  1
 11 17  1  1
 17 10  1  0
 18  2  1  6
 19  9  1  1
  1 19  1  6
 19  8  1  0
  2 20  1  1
 22 21  1  6
 22 18  1  0
 23 22  1  1
 24 16  1  0
 24 15  1  0
 25 23  1  6
 26 25  1  0
 26 18  1  0
 27 25  1  0
 27  1  1  1
 28  8  1  0
 28 27  1  0
 28 29  1  6
 30 29  2  0
 26 30  1  1
 16 31  1  6
 31 14  1  0
 10 32  2  0
 33 13  1  0
 14 34  2  0
 35 24  2  0
M  END
$$$$
