
     RDKit          3D

 12 12  0  0  0  0  0  0  0  0999 V2000
    7.9330    3.2960    7.1840 C   0  0  0  0  0  0  0  0  0  0  0  0
    6.5240    4.0570    2.2040 C   0  0  0  0  0  0  0  0  0  5  0  0
    7.0070    2.9150    3.0680 C   0  0  0  0  0  0  0  0  0  4  0  0
    7.3920    3.1120    4.3890 C   0  0  0  0  0  0  0  0  0  3  0  0
    7.7880    2.0170    5.1530 C   0  0  0  0  0  0  0  0  0  2  0  0
    7.7760    0.7370    4.6230 C   0  0  0  0  0  0  0  0  0 10  0  0
    7.3880    0.5560    3.3210 C   0  0  0  0  0  0  0  0  0  7  0  0
    7.0190    1.6250    2.5280 C   0  0  0  0  0  0  0  0  0  6  0  0
    6.7520   -1.0130    1.6350 C   0  0  0  0  0  0  0  0  0  9  0  0
    7.3980   -0.7620    2.8550 O   0  0  0  0  0  0  0  0  0  8  0  0
    8.1280   -0.3610    5.4140 O   0  0  0  0  0  0  0  0  0 11  0  0
    8.1990    2.0910    6.4870 O   0  0  0  0  0  0  0  0  0  1  0  0
  3  2  1  0
  4  3  2  0
  5  4  1  0
  6  5  2  0
  7  6  1  0
  8  7  2  0
  8  3  1  0
 10  9  1  0
 10  7  1  0
 11  6  1  0
 12  5  1  0
 12  1  1  0
M  END
$$$$
