
     RDKit          3D

 28 31  0  0  0  0  0  0  0  0999 V2000
   45.2410   -9.3990  -38.2530 C   0  0  0  0  0  0  0  0  0 20  0  0
   45.4970  -10.2610  -39.5050 C   0  0  0  0  0  0  0  0  0 19  0  0
   44.1870  -10.5090  -40.2290 C   0  0  0  0  0  0  0  0  0 17  0  0
   43.0960   -9.5040  -40.1510 C   0  0  0  0  0  0  0  0  0 16  0  0
   43.2790   -8.3400  -39.5060 C   0  0  0  0  0  0  0  0  0 15  0  0
   42.2300   -7.2620  -39.6120 C   0  0  0  0  0  0  0  0  0 14  0  0
   41.7390   -6.8970  -38.1890 C   0  0  0  0  0  0  0  0  0 13  0  0
   42.9610   -6.4510  -37.3360 C   0  0  2  0  0  0  0  0  0 12  0  0
   43.9590   -7.5930  -37.1950 C   0  0  1  0  0  0  0  0  0 23  0  0
   44.4770   -8.0910  -38.5830 C   0  0  1  0  0  0  0  0  0 21  0  0
   45.1220   -7.2270  -36.2330 C   0  0  0  0  0  0  0  0  0 24  0  0
   44.6150   -6.7060  -34.8680 C   0  0  0  0  0  0  0  0  0 25  0  0
   43.7230   -5.4640  -35.0610 C   0  0  1  0  0  0  0  0  0 26  0  0
   42.5790   -5.9880  -35.9480 C   0  0  1  0  0  0  0  0  0 11  0  0
   41.5240   -4.9180  -35.9130 C   0  0  0  0  0  0  0  0  0 10  0  0
   41.6780   -4.4690  -34.4310 C   0  0  0  0  0  0  0  0  0  9  0  0
   42.9270   -5.0980  -33.7870 C   0  0  2  0  0  0  0  0  0  8  0  0
   44.4450   -4.2350  -35.6900 C   0  0  0  0  0  0  0  0  0 27  0  0
   45.4610   -7.1490  -39.3030 C   0  0  0  0  0  0  0  0  0 22  0  0
   43.5690   -4.1670  -32.6970 C   0  0  2  0  0  0  0  0  0  6  0  0
   44.9650   -4.6070  -32.1790 C   0  0  0  0  0  0  0  0  0  7  0  0
   42.6050   -4.0830  -31.4510 C   0  0  0  0  0  0  0  0  0  5  0  0
   42.9330   -2.8050  -30.5940 C   0  0  0  0  0  0  0  0  0  4  0  0
   41.8240   -2.5920  -29.5390 C   0  0  0  0  0  0  0  0  0  3  0  0
   42.1120   -1.3770  -28.6530 C   0  0  1  0  0  0  0  0  0  1  0  0
   41.7810   -0.0580  -29.3830 C   0  0  0  0  0  0  0  0  0  0  0  0
   41.3670   -1.5970  -27.3400 C   0  0  0  0  0  0  0  0  0  2  0  0
   44.0500  -11.5540  -40.8770 O   0  0  0  0  0  0  0  0  0 18  0  0
  2  1  1  0
  3  2  1  0
  4  3  1  0
  5  4  2  0
  6  5  1  0
  7  6  1  0
  8  7  1  1
  9  8  1  0
 10  5  1  0
 10  1  1  0
 10  9  1  0
  9 11  1  1
 12 11  1  0
 13 12  1  0
 14  8  1  0
 14 13  1  0
 14 15  1  6
 16 15  1  0
 17 16  1  6
 17 13  1  0
 13 18  1  6
 10 19  1  6
 20 17  1  0
 20 21  1  1
 22 20  1  0
 23 22  1  0
 24 23  1  0
 25 24  1  0
 25 26  1  6
 27 25  1  0
 28  3  2  0
M  END
$$$$
