
     RDKit          3D

 24 26  0  0  0  0  0  0  0  0999 V2000
    6.9850    1.7290   35.3460 C   0  0  0  0  0  0  0  0  0  4  0  0
    7.4560    6.7170   38.5880 N   0  0  0  0  0  0  0  0  0  9  0  0
    8.2330    1.3750   35.8540 C   0  0  0  0  0  0  0  0  0 22  0  0
    9.0520   -2.1080   33.9650 Cl  0  0  0  0  0  0  0  0  0  0  0  0
    6.5420    6.9870   39.5230 C   0  0  0  0  0  0  0  0  0 13  0  0
    6.6490    9.6270   32.8290 Cl  0  0  0  0  0  0  0  0  0 18  0  0
    7.7910    7.3930   34.0150 C   0  0  0  0  0  0  0  0  0 16  0  0
    7.4660    8.8730   38.9380 C   0  0  0  0  0  0  0  0  0 11  0  0
    8.0400    7.8580   38.2120 C   0  0  0  0  0  0  0  0  0 10  0  0
    6.3300    3.0040   35.8200 C   0  0  0  0  0  0  0  0  0  5  0  0
    4.3690    6.9600   37.0180 Cl  0  0  0  0  0  0  0  0  0 21  0  0
    6.9740   -0.2600   33.9750 C   0  0  0  0  0  0  0  0  0  2  0  0
    6.3530    0.9150   34.4050 C   0  0  0  0  0  0  0  0  0  3  0  0
    8.2240   -0.6080   34.4900 C   0  0  0  0  0  0  0  0  0  1  0  0
    8.8500    0.2070   35.4220 C   0  0  0  0  0  0  0  0  0 23  0  0
    6.7180    8.2830   34.0130 C   0  0  0  0  0  0  0  0  0 17  0  0
    5.6890    8.1350   34.9350 C   0  0  0  0  0  0  0  0  0 19  0  0
    5.7250    7.0950   35.8590 C   0  0  0  0  0  0  0  0  0 20  0  0
    6.7910    6.1960   35.8770 C   0  0  0  0  0  0  0  0  0 14  0  0
    7.7620    5.3950   38.0500 C   0  0  0  0  0  0  0  0  0  8  0  0
    6.5440    8.3140   39.7440 N   0  0  0  0  0  0  0  0  0 12  0  0
    6.8450    5.0790   36.8650 C   0  0  2  0  0  0  0  0  0  7  0  0
    7.3540    3.9080   36.2320 O   0  0  0  0  0  0  0  0  0  6  0  0
    7.8230    6.3550   34.9490 C   0  0  0  0  0  0  0  0  0 15  0  0
  3  1  2  0
  5  2  1  0
  9  8  2  0
  9  2  1  0
 10  1  1  0
 13 12  2  0
 13  1  1  0
 14 12  1  0
 14  4  1  0
 15 14  2  0
 15  3  1  0
 16  7  2  0
 16  6  1  0
 17 16  1  0
 18 11  1  0
 18 17  2  0
 19 18  1  0
 20  2  1  0
 21  8  1  0
 21  5  2  0
 22 20  1  1
 22 19  1  0
 23 22  1  0
 23 10  1  0
 24 19  2  0
 24  7  1  0
M  END
$$$$
