
     RDKit          3D

 15 14  0  0  0  0  0  0  0  0999 V2000
   10.8970   12.5810   62.5860 C   0  0  0  0  0  0  0  0  0 13  0  0
   10.7800   14.1060   62.6610 C   0  0  0  0  0  0  0  0  0 12  0  0
   12.0490   14.6560   61.9440 C   0  0  0  0  0  0  0  0  0 11  0  0
   11.7290   16.1220   61.6830 C   0  0  0  0  0  0  0  0  0 10  0  0
   12.9500   16.7180   61.0240 C   0  0  0  0  0  0  0  0  0  9  0  0
   12.8330   18.2440   61.1970 C   0  0  0  0  0  0  0  0  0  8  0  0
   13.4980   18.8180   59.9750 C   0  0  0  0  0  0  0  0  0  7  0  0
   14.0750   20.2040   60.2550 C   0  0  0  0  0  0  0  0  0  6  0  0
   14.4560   20.7460   58.8910 C   0  0  0  0  0  0  0  0  0  5  0  0
   15.5410   21.7770   59.0240 C   0  0  0  0  0  0  0  0  0  4  0  0
   16.8660   21.0340   59.2380 C   0  0  0  0  0  0  0  0  0  3  0  0
   17.8710   21.6320   58.2350 C   0  0  0  0  0  0  0  0  0  1  0  0
   10.0920   11.9970   63.6190 O   0  0  0  0  0  0  0  0  0 14  0  0
   18.2360   20.9400   57.2440 O   0  0  0  0  0  0  0  0  0  0  0  0
   18.3180   22.7690   58.5310 O   0  0  0  0  0  0  0  0  0  2  0  0
  2  1  1  0
  3  2  1  0
  4  3  1  0
  5  4  1  0
  6  5  1  0
  7  6  1  0
  8  7  1  0
  9  8  1  0
 10  9  1  0
 11 10  1  0
 12 11  1  0
 13  1  1  0
 12 14  2  0
 15 12  1  0
M  END
$$$$
