
     RDKit          3D

  8  8  0  0  0  0  0  0  0  0999 V2000
  -40.1710   24.1380   -7.2120 C   0  0  0  0  0  0  0  0  0  0  0  0
  -40.8970   24.5100   -8.4650 C   0  0  0  0  0  0  0  0  0  1  0  0
  -42.2380   24.1220   -8.7280 C   0  0  0  0  0  0  0  0  0  2  0  0
  -42.9340   24.4420   -9.8760 C   0  0  0  0  0  0  0  0  0  3  0  0
  -42.2310   25.1130  -10.8100 C   0  0  0  0  0  0  0  0  0  4  0  0
  -43.1200   25.5400  -12.2620 Cl  0  0  0  0  0  0  0  0  0  5  0  0
  -40.9120   25.4980  -10.6780 C   0  0  0  0  0  0  0  0  0  6  0  0
  -40.2600   25.1740   -9.4760 C   0  0  0  0  0  0  0  0  0  7  0  0
  2  1  1  0
  3  2  2  0
  4  3  1  0
  5  4  2  0
  6  5  1  0
  7  5  1  0
  8  7  2  0
  8  2  1  0
M  END
$$$$
