
     RDKit          3D

 23 24  0  0  0  0  0  0  0  0999 V2000
   23.7870   10.6850   13.4470 C   0  0  0  0  0  0  0  0  0  2  0  0
   25.0060   10.3520   12.6230 C   0  0  0  0  0  0  0  0  0  1  0  0
   24.7230   12.7380   16.4570 N   0  0  0  0  0  0  0  0  0 18  0  0
   24.0300   13.4370   17.4200 C   0  0  0  0  0  0  0  0  0 19  0  0
   24.9210   13.6940   18.4050 C   0  0  0  0  0  0  0  0  0 20  0  0
   26.1550   13.1740   18.1000 N   0  0  0  0  0  0  0  0  0 21  0  0
   26.0000   12.5980   16.9310 C   0  0  0  0  0  0  0  0  0 22  0  0
   24.2300   12.3640   15.1880 C   0  0  0  0  0  0  0  0  0 16  0  0
   23.7910   13.2650   14.5050 O   0  0  0  0  0  0  0  0  0 17  0  0
   24.1980   11.0700   14.7910 N   0  0  0  0  0  0  0  0  0  3  0  0
   26.1580   11.3290   12.8290 C   0  0  0  0  0  0  0  0  0  0  0  0
   24.4150    9.9560   15.7140 C   0  0  0  0  0  0  0  0  0  4  0  0
   23.1110    9.3220   16.0870 C   0  0  0  0  0  0  0  0  0  5  0  0
   22.2490   10.4250   16.3690 O   0  0  0  0  0  0  0  0  0  6  0  0
   18.4720    9.5540   17.7600 C   0  0  0  0  0  0  0  0  0 11  0  0
   18.6440    9.7300   16.4030 C   0  0  0  0  0  0  0  0  0 10  0  0
   19.9140    9.9950   15.9300 C   0  0  0  0  0  0  0  0  0  8  0  0
   20.9960   10.0630   16.7890 C   0  0  0  0  0  0  0  0  0  7  0  0
   20.7960    9.8130   18.1270 C   0  0  0  0  0  0  0  0  0 14  0  0
   19.5380    9.5560   18.6320 C   0  0  0  0  0  0  0  0  0 13  0  0
   16.8570    9.4910   18.4090 Cl  0  0  0  0  0  0  0  0  0 12  0  0
   20.1420   10.2970   14.2380 Cl  0  0  0  0  0  0  0  0  0  9  0  0
   22.1510    9.8320   19.2070 Cl  0  0  0  0  0  0  0  0  0 15  0  0
  2  1  1  0
  4  3  1  0
  5  4  2  0
  6  5  1  0
  7  6  2  0
  7  3  1  0
  8  3  1  0
  9  8  2  0
 10  1  1  0
 10  8  1  0
 11  2  1  0
 12 10  1  0
 13 12  1  0
 14 13  1  0
 16 15  2  0
 17 16  1  0
 18 17  2  0
 18 14  1  0
 19 18  1  0
 20 19  2  0
 20 15  1  0
 15 21  1  0
 22 17  1  0
 23 19  1  0
M  END
$$$$
