
     RDKit          3D

 27 30  0  0  0  0  0  0  0  0999 V2000
   23.6140   12.3800   14.0820 C   0  0  0  0  0  0  0  0  0 24  0  0
   25.7210   11.8740   13.0760 C   0  0  0  0  0  0  0  0  0 14  0  0
   25.2160   11.0830   15.2740 C   0  0  0  0  0  0  0  0  0 12  0  0
   26.0970   11.1860   14.2160 C   0  0  0  0  0  0  0  0  0 13  0  0
   24.4770   12.4770   13.0070 C   0  0  0  0  0  0  0  0  0 23  0  0
   27.5570   11.1280   11.6420 C   0  0  0  0  0  0  0  0  0 16  0  0
   26.5190   12.0150   11.9360 O   0  0  0  0  0  0  0  0  0 15  0  0
   28.7560   11.6860   11.2310 C   0  0  0  0  0  0  0  0  0 17  0  0
   29.8340   10.8710   10.9490 C   0  0  0  0  0  0  0  0  0 18  0  0
   23.9590   11.6710   15.2340 C   0  0  0  0  0  0  0  0  0 11  0  0
   29.7020    9.5080   11.0850 C   0  0  0  0  0  0  0  0  0 19  0  0
   28.5110    8.9370   11.4740 C   0  0  0  0  0  0  0  0  0 21  0  0
   23.0400   11.5300   16.4100 C   0  0  2  0  0  0  0  0  0  4  0  0
   23.4190   10.3900   17.1720 O   0  0  0  0  0  0  0  0  0  3  0  0
   21.6740   11.3340   16.0450 O   0  0  0  0  0  0  0  0  0 26  0  0
   27.4300    9.7520   11.7510 C   0  0  0  0  0  0  0  0  0 22  0  0
   31.0790    8.4860   10.7880 Cl  0  0  0  0  0  0  0  0  0 20  0  0
   22.0990   13.2100   13.9560 Cl  0  0  0  0  0  0  0  0  0 25  0  0
   22.4440    9.3850   16.9580 C   0  0  0  0  0  0  0  0  0  2  0  0
   21.1750   10.1770   16.7510 C   0  0  2  0  0  0  0  0  0  1  0  0
   23.0240   12.7940   17.3230 C   0  0  0  0  0  0  0  0  0  5  0  0
   24.3770   13.0700   17.7700 N   0  0  0  0  0  0  0  0  0  6  0  0
   25.1150   14.0640   17.2140 N   0  0  0  0  0  0  0  0  0 10  0  0
   26.2640   13.9390   17.8360 C   0  0  0  0  0  0  0  0  0  9  0  0
   26.3200   12.9470   18.7510 N   0  0  0  0  0  0  0  0  0  8  0  0
   25.1130   12.4330   18.6780 C   0  0  0  0  0  0  0  0  0  7  0  0
   20.1430    9.4810   15.9010 C   0  0  0  0  0  0  0  0  0  0  0  0
  4  3  1  0
  4  2  2  0
  5  2  1  0
  5  1  2  0
  7  2  1  0
  7  6  1  0
  8  6  2  0
  9  8  1  0
 10  3  2  0
 10  1  1  0
 11  9  2  0
 12 11  1  0
 13 10  1  0
 14 13  1  0
 15 13  1  0
 16 12  2  0
 16  6  1  0
 17 11  1  0
 18  1  1  0
 19 14  1  0
 20 15  1  0
 20 19  1  0
 13 21  1  1
 22 21  1  0
 23 22  1  0
 24 23  2  0
 25 24  1  0
 26 25  2  0
 26 22  1  0
 20 27  1  6
M  END
$$$$
