
     RDKit          3D

 25 27  0  0  0  0  0  0  0  0999 V2000
  100.5620   12.5190   14.4620 F   0  0  0  0  0  0  0  0  0 24  0  0
   98.5590    8.2040   18.1230 F   0  0  0  0  0  0  0  0  0  8  0  0
  104.4360   10.8420   12.4690 F   0  0  0  0  0  0  0  0  0 21  0  0
  101.0460    9.5420   17.5100 O   0  0  0  0  0  0  0  0  0 10  0  0
  102.1360   12.2000   17.7550 N   0  0  0  0  0  0  0  0  0 12  0  0
   97.5560   11.6300   17.5310 N   0  0  0  0  0  0  0  0  0  3  0  0
  102.7610   13.2680   17.2010 N   0  0  0  0  0  0  0  0  0 16  0  0
  104.1750   12.0960   18.4920 N   0  0  0  0  0  0  0  0  0 14  0  0
   96.3340   10.7170   19.3770 N   0  0  0  0  0  0  0  0  0  5  0  0
  100.6300   10.5920   16.6290 C   0  0  1  0  0  0  0  0  0  9  0  0
   99.1610   10.4210   16.1680 C   0  0  1  0  0  0  0  0  0  1  0  0
  100.7520   11.8910   17.4430 C   0  0  0  0  0  0  0  0  0 11  0  0
  101.6100   10.6610   15.4580 C   0  0  0  0  0  0  0  0  0 17  0  0
   98.9630    9.1470   15.3340 C   0  0  0  0  0  0  0  0  0  0  0  0
   98.2090   10.4770   17.3340 C   0  0  0  0  0  0  0  0  0  2  0  0
  101.5680   11.6200   14.4530 C   0  0  0  0  0  0  0  0  0 23  0  0
  102.6530    9.7440   15.3990 C   0  0  0  0  0  0  0  0  0 18  0  0
   97.9320    9.3980   18.1980 C   0  0  0  0  0  0  0  0  0  7  0  0
  102.4900   11.7080   13.4450 C   0  0  0  0  0  0  0  0  0 22  0  0
  103.5990    9.7900   14.3900 C   0  0  0  0  0  0  0  0  0 19  0  0
  102.9960   11.5300   18.5130 C   0  0  0  0  0  0  0  0  0 13  0  0
  103.4900   10.7720   13.4430 C   0  0  0  0  0  0  0  0  0 20  0  0
   96.9770    9.5640   19.2150 C   0  0  0  0  0  0  0  0  0  6  0  0
   96.6670   11.6820   18.5250 C   0  0  0  0  0  0  0  0  0  4  0  0
  103.9750   13.1550   17.6790 C   0  0  0  0  0  0  0  0  0 15  0  0
  7  5  1  0
 10  4  1  1
 11 10  1  0
 12 10  1  0
 12  5  1  0
 13 10  1  0
 11 14  1  1
 15  6  2  0
 15 11  1  0
 16 13  2  0
 16  1  1  0
 17 13  1  0
 18 15  1  0
 18  2  1  0
 19 16  1  0
 20 17  2  0
 21  5  1  0
 21  8  2  0
 22 19  2  0
 22 20  1  0
 22  3  1  0
 23 18  2  0
 23  9  1  0
 24  9  2  0
 24  6  1  0
 25  7  2  0
 25  8  1  0
M  END
$$$$
