
     RDKit          3D

 23 26  0  0  0  0  0  0  0  0999 V2000
   56.1770 -116.4840  161.1130 C   0  0  0  0  0  0  0  0  0 15  0  0
   57.3190 -117.0030  160.3080 C   0  0  0  0  0  0  0  0  0 14  0  0
   56.9090 -117.8320  159.1790 C   0  0  0  0  0  0  0  0  0 12  0  0
   57.6060 -118.5600  158.5990 O   0  0  0  0  0  0  0  0  0 13  0  0
   55.5170 -117.6540  158.6860 C   0  0  0  0  0  0  0  0  0 11  0  0
   54.6660 -116.4160  159.2010 C   0  0  0  0  0  0  0  0  0 10  0  0
   53.4940 -116.1200  158.5300 C   0  0  0  0  0  0  0  0  0  9  0  0
   52.2480 -115.6290  159.4990 C   0  0  0  0  0  0  0  0  0  8  0  0
   52.5950 -114.8890  160.4210 C   0  0  2  0  0  0  0  0  0  7  0  0
   53.8260 -115.3080  161.2200 C   0  0  1  0  0  0  0  0  0 18  0  0
   55.0410 -115.7140  160.2490 C   0  0  1  0  0  0  0  0  0 16  0  0
   54.1860 -114.2830  162.3830 C   0  0  0  0  0  0  0  0  0 19  0  0
   53.2650 -113.8500  163.1120 C   0  0  0  0  0  0  0  0  0 20  0  0
   52.1340 -113.4210  162.5750 C   0  0  1  0  0  0  0  0  0 21  0  0
   51.5550 -114.4340  161.4350 C   0  0  1  0  0  0  0  0  0  6  0  0
   50.1540 -113.6830  160.8940 C   0  0  0  0  0  0  0  0  0  5  0  0
   49.6500 -112.9280  162.1060 C   0  0  0  0  0  0  0  0  0  4  0  0
   50.6780 -113.0820  163.3730 C   0  0  2  0  0  0  0  0  0  3  0  0
   52.4420 -112.1580  161.8050 C   0  0  0  0  0  0  0  0  0 22  0  0
   55.7430 -114.5090  159.6990 C   0  0  0  0  0  0  0  0  0 17  0  0
   50.7960 -112.0340  164.2600 C   0  0  0  0  0  0  0  0  0  1  0  0
   51.3940 -112.0650  165.2840 O   0  0  0  0  0  0  0  0  0  2  0  0
   50.0730 -110.7620  163.8700 C   0  0  0  0  0  0  0  0  0  0  0  0
  2  1  1  0
  3  2  1  0
  3  4  2  0
  5  3  1  0
  6  5  2  0
  7  6  1  0
  8  7  1  0
  9  8  1  1
 10  9  1  0
 11 10  1  0
 11  6  1  0
 11  1  1  0
 10 12  1  1
 13 12  1  0
 14 13  1  0
 15  9  1  0
 15 14  1  0
 15 16  1  6
 17 16  1  0
 18 17  1  0
 18 14  1  0
 14 19  1  6
 11 20  1  6
 18 21  1  6
 22 21  2  0
 23 21  1  0
M  END
$$$$
