
     RDKit          3D

 16 15  0  0  0  0  0  0  0  0999 V2000
   25.6180   -1.2670   16.7810 C   0  0  0  0  0  0  0  0  0  0  0  0
   26.2920    0.0080   17.2850 C   0  0  0  0  0  0  0  0  0  1  0  0
   26.0090    1.2650   16.4540 C   0  0  0  0  0  0  0  0  0  2  0  0
   27.0390    0.0240   18.3970 C   0  0  0  0  0  0  0  0  0  3  0  0
   27.3090   -1.2690   19.1840 C   0  0  0  0  0  0  0  0  0  4  0  0
   27.5110   -1.1490   20.6990 C   0  0  0  0  0  0  0  0  0  5  0  0
   27.2280   -2.5340   21.3230 C   0  0  0  0  0  0  0  0  0  6  0  0
   26.9590   -3.7420   20.4240 C   0  0  0  0  0  0  0  0  0  7  0  0
   27.2080   -2.7230   22.6290 C   0  0  0  0  0  0  0  0  0  8  0  0
   26.9360   -4.1010   23.2450 C   0  0  0  0  0  0  0  0  0  9  0  0
   26.9310   -4.0050   24.7760 C   0  0  0  0  0  0  0  0  0 10  0  0
   27.4550   -5.3500   25.2470 C   0  0  0  0  0  0  0  0  0 11  0  0
   26.5980   -6.3250   26.0620 C   0  0  0  0  0  0  0  0  0 12  0  0
   28.6830   -5.6100   24.8750 C   0  0  0  0  0  0  0  0  0 13  0  0
   29.4210   -6.8950   25.1800 C   0  0  0  0  0  0  0  0  0 14  0  0
   29.9890   -7.2170   23.9370 O   0  0  0  0  0  0  0  0  0 15  0  0
  2  1  1  0
  3  2  1  0
  4  2  2  3
  5  4  1  0
  6  5  1  0
  7  6  1  0
  8  7  1  0
  9  7  2  3
 10  9  1  0
 11 10  1  0
 12 11  1  0
 13 12  1  0
 14 12  2  3
 15 14  1  0
 16 15  1  0
M  END
$$$$
