
     RDKit          3D

 28 31  0  0  0  0  0  0  0  0999 V2000
  -19.0460   29.3370    2.7080 C   0  0  0  0  0  0  0  0  0 20  0  0
  -20.1500   30.5020    3.1870 C   0  0  0  0  0  0  0  0  0 19  0  0
  -21.5460   29.9880    3.3120 C   0  0  0  0  0  0  0  0  0 17  0  0
  -22.0540   28.8880    2.2000 C   0  0  0  0  0  0  0  0  0 16  0  0
  -21.0690   27.9160    1.8040 C   0  0  0  0  0  0  0  0  0 15  0  0
  -21.4080   27.0420    0.4830 C   0  0  0  0  0  0  0  0  0 14  0  0
  -20.4660   27.3620   -0.7290 C   0  0  0  0  0  0  0  0  0 13  0  0
  -18.9670   27.0120   -0.4290 C   0  0  2  0  0  0  0  0  0 12  0  0
  -18.4260   27.7380    0.7120 C   0  0  2  0  0  0  0  0  0 23  0  0
  -19.5250   28.4940    1.6780 C   0  0  1  0  0  0  0  0  0 21  0  0
  -17.4390   28.7780    0.3310 C   0  0  0  0  0  0  0  0  0 24  0  0
  -16.3190   28.2260   -0.5390 C   0  0  0  0  0  0  0  0  0 25  0  0
  -16.9140   27.6870   -1.8580 C   0  0  1  0  0  0  0  0  0 26  0  0
  -18.2690   27.2790   -1.8770 C   0  0  1  0  0  0  0  0  0 11  0  0
  -18.3400   26.3090   -3.1550 C   0  0  0  0  0  0  0  0  0 10  0  0
  -17.0320   26.6500   -4.0290 C   0  0  0  0  0  0  0  0  0  9  0  0
  -16.0470   27.1210   -3.1430 C   0  0  1  0  0  0  0  0  0  8  0  0
  -16.3740   26.3260   -1.3400 C   0  0  0  0  0  0  0  0  0 27  0  0
  -19.1830   27.3560    2.6550 C   0  0  0  0  0  0  0  0  0 22  0  0
  -15.1170   28.2140   -3.8210 C   0  0  1  0  0  0  0  0  0  6  0  0
  -13.7580   28.3510   -3.0850 C   0  0  0  0  0  0  0  0  0  7  0  0
  -14.9200   27.8860   -5.3590 C   0  0  0  0  0  0  0  0  0  5  0  0
  -13.5640   27.1820   -5.7170 C   0  0  0  0  0  0  0  0  0  4  0  0
  -13.4360   26.9820   -7.2760 C   0  0  0  0  0  0  0  0  0  3  0  0
  -12.1370   26.2210   -7.7010 C   0  0  1  0  0  0  0  0  0  1  0  0
  -12.4020   24.7010   -7.8330 C   0  0  0  0  0  0  0  0  0  0  0  0
  -11.5890   26.7840   -9.0240 C   0  0  0  0  0  0  0  0  0  2  0  0
  -22.2680   30.3600    4.1860 O   0  0  0  0  0  0  0  0  0 18  0  0
  2  1  1  0
  3  2  1  0
  4  3  1  0
  5  4  2  0
  6  5  1  0
  7  6  1  0
  8  7  1  6
  9  8  1  0
 10  9  1  0
 10  5  1  0
 10  1  1  0
  9 11  1  6
 12 11  1  0
 13 12  1  0
 14  8  1  0
 14 13  1  0
 14 15  1  6
 16 15  1  0
 17 16  1  6
 17 13  1  0
 13 18  1  6
 10 19  1  6
 20 17  1  0
 20 21  1  1
 22 20  1  0
 23 22  1  0
 24 23  1  0
 25 24  1  0
 25 26  1  6
 27 25  1  0
 28  3  2  0
M  END
$$$$
