
     RDKit          3D

 14 13  0  0  0  0  0  0  0  0999 V2000
    6.1050    7.0690   25.3650 C   0  0  0  0  0  0  0  0  0  4  0  0
    4.8070   10.1750   27.1910 C   0  0  0  0  0  0  0  0  0  0  0  0
   12.6620    2.4540   22.3510 C   0  0  0  0  0  0  0  0  0 12  0  0
   11.6280    3.5640   22.5160 C   0  0  0  0  0  0  0  0  0 11  0  0
   10.4190    3.2700   22.9490 C   0  0  0  0  0  0  0  0  0 10  0  0
   12.0010    5.0080   22.1820 C   0  0  0  0  0  0  0  0  0 13  0  0
    9.3650    4.3620   23.1250 C   0  0  0  0  0  0  0  0  0  9  0  0
    8.6590    4.2720   24.4760 C   0  0  0  0  0  0  0  0  0  8  0  0
    7.3910    5.1220   24.5460 C   0  0  0  0  0  0  0  0  0  6  0  0
    7.3680    6.2130   25.2850 C   0  0  0  0  0  0  0  0  0  5  0  0
    6.1500    4.6990   23.7650 C   0  0  0  0  0  0  0  0  0  7  0  0
    6.0140    8.0050   26.2880 C   0  0  0  0  0  0  0  0  0  3  0  0
    4.7630    8.8740   26.3930 C   0  0  0  0  0  0  0  0  0  1  0  0
    3.7600    8.5390   25.8570 O   0  0  0  0  0  0  0  0  0  2  0  0
  4  3  1  0
  5  4  2  3
  6  4  1  0
  7  5  1  0
  8  7  1  0
  9  8  1  0
 10  9  2  3
 10  1  1  0
 11  9  1  0
 12  1  2  3
 13  2  1  0
 13 12  1  0
 14 13  2  0
M  END
$$$$
