
     RDKit          3D

 18 17  0  0  0  0  0  0  0  0999 V2000
  -17.7560  -17.6710   16.2970 C   0  0  0  0  0  0  0  0  0 15  0  0
  -16.9990  -17.5620   15.2950 O   0  0  0  0  0  0  0  0  0 16  0  0
  -18.7380  -16.9510   16.5570 O   0  0  0  0  0  0  0  0  0 17  0  0
  -17.3870  -18.8940   17.3520 C   0  0  0  0  0  0  0  0  0 14  0  0
  -17.4400  -18.5150   18.8920 C   0  0  0  0  0  0  0  0  0 13  0  0
  -18.7260  -17.7740   19.4340 C   0  0  0  0  0  0  0  0  0 12  0  0
  -18.9000  -17.8550   21.0030 C   0  0  0  0  0  0  0  0  0 11  0  0
  -18.5670  -16.5610   21.8230 C   0  0  0  0  0  0  0  0  0 10  0  0
  -17.1950  -16.5680   22.5580 C   0  0  0  0  0  0  0  0  0  9  0  0
  -16.8000  -15.2340   23.1910 C   0  0  0  0  0  0  0  0  0  8  0  0
  -17.8430  -14.6560   24.0920 C   0  0  0  0  0  0  0  0  0  7  0  0
  -17.3090  -13.6420   25.1340 C   0  0  0  0  0  0  0  0  0  6  0  0
  -18.2650  -13.4820   26.3170 C   0  0  0  0  0  0  0  0  0  5  0  0
  -18.0580  -12.2300   27.1470 C   0  0  0  0  0  0  0  0  0  4  0  0
  -19.0260  -12.1110   28.3470 C   0  0  0  0  0  0  0  0  0  3  0  0
  -18.9160  -10.7410   29.0890 C   0  0  0  0  0  0  0  0  0  2  0  0
  -17.6030   -9.9580   28.7650 C   0  0  0  0  0  0  0  0  0  1  0  0
  -17.5060   -8.5190   29.3620 C   0  0  0  0  0  0  0  0  0  0  0  0
  2  1  2  0
  3  1  1  0
  4  1  1  0
  5  4  1  0
  6  5  1  0
  7  6  1  0
  8  7  1  0
  9  8  1  0
 10  9  1  0
 11 10  1  0
 12 11  1  0
 13 12  1  0
 14 13  1  0
 15 14  1  0
 16 15  1  0
 17 16  1  0
 18 17  1  0
M  END
$$$$
