
     RDKit          3D

 10  9  0  0  0  0  0  0  0  0999 V2000
    2.1840  -13.8900  -58.2060 C   0  0  0  0  0  0  0  0  0  7  0  0
    1.9760  -12.9670  -57.0170 C   0  0  0  0  0  0  0  0  0  6  0  0
    2.7950  -11.7070  -57.0500 C   0  0  0  0  0  0  0  0  0  5  0  0
    1.9860  -10.4720  -56.6920 C   0  0  0  0  0  0  0  0  0  4  0  0
    2.8000   -9.3350  -56.1300 C   0  0  0  0  0  0  0  0  0  3  0  0
    1.9680   -8.2120  -55.5450 C   0  0  0  0  0  0  0  0  0  2  0  0
    2.7460   -7.2290  -54.7030 C   0  0  0  0  0  0  0  0  0  1  0  0
    2.6230   -5.7850  -55.1300 C   0  0  0  0  0  0  0  0  0  0  0  0
    1.1770  -14.3190  -58.8080 O   0  0  0  0  0  0  0  0  0  8  0  0
    3.3540  -14.1760  -58.5320 O   0  0  0  0  0  0  0  0  0  9  0  0
  2  1  1  0
  3  2  1  0
  4  3  1  0
  5  4  1  0
  6  5  1  0
  7  6  1  0
  8  7  1  0
  9  1  2  0
 10  1  1  0
M  END
$$$$
