
     RDKit          3D

  8  7  0  0  0  0  0  0  0  0999 V2000
   14.2190   -1.9840   19.7220 C   0  0  0  0  0  0  0  0  0  4  0  0
   14.6420   -0.6740   20.3920 C   0  0  0  0  0  0  0  0  0  5  0  0
   14.9330    0.2830   19.6670 O   0  0  0  0  0  0  0  0  0  6  0  0
   13.7050   -3.0990   20.6200 C   0  0  0  0  0  0  0  0  0  3  0  0
   13.1510   -4.2560   19.7970 C   0  0  0  0  0  0  0  0  0  2  0  0
   11.6330   -4.3310   19.7660 C   0  0  0  0  0  0  0  0  0  1  0  0
   11.1200   -5.4430   18.8490 C   0  0  0  0  0  0  0  0  0  0  0  0
   14.6530   -0.6570   21.6460 O   0  0  0  0  0  0  0  0  0  7  0  0
  1  2  1  1
  3  2  2  0
  4  1  1  1
  5  4  1  1
  6  5  1  0
  6  7  1  6
  8  2  1  0
M  END
$$$$
