
     RDKit          3D

 25 28  0  0  0  0  0  0  0  0999 V2000
  -29.1290   -8.9750   18.8340 C   0  0  0  0  0  0  0  0  0  0  0  0
  -29.3970   -8.7870   17.3300 C   0  0  0  0  0  0  0  0  0  0  0  0
  -29.3040   -7.2820   16.8000 C   0  0  1  0  0  0  0  0  0  0  0  0
  -28.3640   -6.2820   17.6390 C   0  0  0  0  0  0  0  0  0  0  0  0
  -27.7820   -6.7600   18.9700 C   0  0  2  0  0  0  0  0  0  0  0  0
  -26.8060   -5.8060   19.7740 C   0  0  0  0  0  0  0  0  0  0  0  0
  -27.2810   -5.7500   21.3290 C   0  0  0  0  0  0  0  0  0  0  0  0
  -27.4490   -7.1380   21.9180 C   0  0  2  0  0  0  0  0  0  0  0  0
  -28.3940   -8.0880   21.0640 C   0  0  1  0  0  0  0  0  0  0  0  0
  -28.0720   -8.1870   19.5300 C   0  0  1  0  0  0  0  0  0  0  0  0
  -28.5450   -9.4920   21.8350 C   0  0  2  0  0  0  0  0  0  0  0  0
  -29.0050   -9.2680   23.3990 C   0  0  0  0  0  0  0  0  0  0  0  0
  -28.0860   -8.3700   24.1990 C   0  0  1  0  0  0  0  0  0  0  0  0
  -27.9130   -6.9600   23.3770 C   0  0  1  0  0  0  0  0  0  0  0  0
  -27.0900   -6.2540   24.1490 C   0  0  0  0  0  0  0  0  0  0  0  0
  -27.5950   -6.5890   25.6480 C   0  0  0  0  0  0  0  0  0  0  0  0
  -28.5900   -7.9430   25.3840 C   0  0  2  0  0  0  0  0  0  0  0  0
  -26.6980   -9.0600   24.4190 C   0  0  0  0  0  0  0  0  0  0  0  0
  -26.7280   -8.9050   19.2670 C   0  0  0  0  0  0  0  0  0  0  0  0
  -28.5300   -8.9290   26.5840 C   0  0  0  0  0  0  0  0  0  0  0  0
  -29.7890   -9.6100   27.1420 C   0  0  0  0  0  0  0  0  0  0  0  0
  -29.7860   -6.8370   15.7640 O   0  0  0  0  0  0  0  0  0  0  0  0
  -27.4020  -10.1690   21.8000 O   0  0  0  0  0  0  0  0  0  0  0  0
  -27.4510   -9.1690   27.1140 O   0  0  0  0  0  0  0  0  0  0  0  0
  -29.3510  -10.5830   28.0860 O   0  0  0  0  0  0  0  0  0  0  0  0
  2  1  1  0
  3  2  1  0
  4  3  1  0
  5  4  1  6
  6  5  1  0
  7  6  1  0
  8  7  1  6
  9  8  1  0
 10  9  1  0
 10  5  1  0
 10  1  1  0
  9 11  1  1
 12 11  1  0
 13 12  1  0
 14 13  1  0
 14  8  1  0
 14 15  1  1
 16 15  1  0
 17 16  1  0
 17 13  1  0
 13 18  1  1
 10 19  1  1
 17 20  1  1
 21 20  1  0
  3 22  1  6
 11 23  1  1
 24 20  1  0
 25 21  1  0
M  END
$$$$
