
     RDKit          3D

 25 27  0  0  0  0  0  0  0  0999 V2000
  135.1690  196.9980    6.4980 F   0  0  0  0  0  0  0  0  0  0  0  0
  136.5640  200.2430    4.3560 F   0  0  0  0  0  0  0  0  0  0  0  0
  133.9470  192.4400    6.8870 F   0  0  0  0  0  0  0  0  0  0  0  0
  136.1930  196.1750    2.3690 O   0  0  0  0  0  0  0  0  0  0  0  0
  133.4870  196.8740    3.2030 N   0  0  0  0  0  0  0  0  0  0  0  0
  138.4770  197.8770    2.3180 N   0  0  0  0  0  0  0  0  0  0  0  0
  132.2690  197.4060    3.6440 N   0  0  0  0  0  0  0  0  0  0  0  0
  131.9570  195.4710    2.6470 N   0  0  0  0  0  0  0  0  0  0  0  0
  138.7500  200.0620    1.5160 N   0  0  0  0  0  0  0  0  0  0  0  0
  135.8630  196.6660    3.6730 C   0  0  1  0  0  0  0  0  0  0  0  0
  137.0770  197.3560    4.2840 C   0  0  1  0  0  0  0  0  0  0  0  0
  134.6850  197.6270    3.5720 C   0  0  0  0  0  0  0  0  0  0  0  0
  135.4230  195.5260    4.5420 C   0  0  1  0  0  0  0  0  0  0  0  0
  138.1360  196.3480    4.7150 C   0  0  0  0  0  0  0  0  0  0  0  0
  137.6600  198.3020    3.3050 C   0  0  0  0  0  0  0  0  0  0  0  0
  135.0260  195.7770    5.9520 C   0  0  0  0  0  0  0  0  0  0  0  0
  135.2230  194.2610    4.0040 C   0  0  0  0  0  0  0  0  0  0  0  0
  137.3710  199.7560    3.3970 C   0  0  0  0  0  0  0  0  0  0  0  0
  134.5500  194.7160    6.7120 C   0  0  0  0  0  0  0  0  0  0  0  0
  134.7380  193.2350    4.8060 C   0  0  0  0  0  0  0  0  0  0  0  0
  133.2930  195.6710    2.6570 C   0  0  0  0  0  0  0  0  0  0  0  0
  134.4090  193.4580    6.1390 C   0  0  0  0  0  0  0  0  0  0  0  0
  137.9600  200.5900    2.4560 C   0  0  0  0  0  0  0  0  0  0  0  0
  139.0000  198.7490    1.4480 C   0  0  0  0  0  0  0  0  0  0  0  0
  131.3370  196.5150    3.2420 C   0  0  0  0  0  0  0  0  0  0  0  0
  7  5  1  0
 10  4  1  6
 11 10  1  0
 12 10  1  0
 12  5  1  0
 13 10  1  0
 11 14  1  6
 15 11  1  0
 15  6  1  0
 16 13  1  0
 16  1  1  0
 13 17  1  6
 18 15  1  0
 18  2  1  0
 19 16  1  0
 20 17  1  0
 21  8  1  0
 21  5  1  0
 22 20  1  0
 22 19  1  0
 22  3  1  0
 23 18  1  0
 23  9  1  0
 24  9  1  0
 24  6  1  0
 25  8  1  0
 25  7  1  0
M  END
$$$$
