
     RDKit          3D

 43 47  0  0  0  0  0  0  0  0999 V2000
  312.6090   12.8510   13.5560 N   0  0  0  0  0  0  0  0  0  0  0  0
  293.5790    9.8070    9.8420 O   0  0  0  0  0  0  0  0  0  0  0  0
  288.6870    9.3970   13.5040 F   0  0  0  0  0  0  0  0  0  0  0  0
  292.7940   11.8060   13.3190 F   0  0  0  0  0  0  0  0  0  0  0  0
  294.2580    7.9290   11.6200 F   0  0  0  0  0  0  0  0  0  0  0  0
  294.5420    9.3520   13.2340 F   0  0  0  0  0  0  0  0  0  0  0  0
  311.6350   12.4840   13.0810 C   0  0  0  0  0  0  0  0  0  0  0  0
  300.8100   10.4160   10.4110 C   0  0  0  0  0  0  0  0  0  0  0  0
  299.8210   10.1550   10.5140 C   0  0  0  0  0  0  0  0  0  0  0  0
  290.3450    8.7770   11.9140 C   0  0  0  0  0  0  0  0  0  0  0  0
  310.2030   10.6520   12.3380 C   0  0  0  0  0  0  0  0  0  0  0  0
  309.4550   12.9220   12.0640 C   0  0  0  0  0  0  0  0  0  0  0  0
  302.5310   12.0540   10.0870 C   0  0  0  0  0  0  0  0  0  0  0  0
  303.0900    9.7380   10.5140 C   0  0  0  0  0  0  0  0  0  0  0  0
  298.0910   10.1950   12.0070 C   0  0  0  0  0  0  0  0  0  0  0  0
  309.0210   10.1990   11.7630 C   0  0  0  0  0  0  0  0  0  0  0  0
  308.2730   12.4680   11.4880 C   0  0  0  0  0  0  0  0  0  0  0  0
  303.8830   12.3580    9.9860 C   0  0  0  0  0  0  0  0  0  0  0  0
  304.4390   10.0470   10.4090 C   0  0  0  0  0  0  0  0  0  0  0  0
  296.7850    9.9630   12.4000 C   0  0  0  0  0  0  0  0  0  0  0  0
  291.5970    8.9800   11.3500 C   0  0  0  0  0  0  0  0  0  0  0  0
  297.6070    9.2940    9.8150 C   0  0  0  0  0  0  0  0  0  0  0  0
  292.9340   12.4190    9.3300 C   0  0  0  0  0  0  0  0  0  0  0  0
  290.7350   10.6130   13.4210 C   0  0  0  0  0  0  0  0  0  0  0  0
  306.8850   10.6160   10.7600 C   0  0  0  0  0  0  0  0  0  0  0  0
  294.1470   11.5940   11.3500 C   0  0  0  0  0  0  0  0  0  0  0  0
  291.8530   13.1790    9.2020 N   0  0  0  0  0  0  0  0  0  0  0  0
  296.2900    9.0730   10.2420 N   0  0  0  0  0  0  0  0  0  0  0  0
  291.5400   13.4750   10.2730 N   0  0  0  0  0  0  0  0  0  0  0  0
  292.2560   12.9830   11.1060 N   0  0  0  0  0  0  0  0  0  0  0  0
  306.1600   11.6480   10.0800 O   0  0  0  0  0  0  0  0  0  0  0  0
  289.9130    9.5950   12.9520 C   0  0  0  0  0  0  0  0  0  0  0  0
  310.4200   12.0160   12.4900 C   0  0  0  0  0  0  0  0  0  0  0  0
  302.1490   10.7380   10.3120 C   0  0  1  0  0  0  0  0  0  0  0  0
  298.4920    9.8670   10.7190 C   0  0  0  0  0  0  0  0  0  0  0  0
  291.9900   10.8130   12.8580 C   0  0  0  0  0  0  0  0  0  0  0  0
  308.0560   11.1030   11.3330 C   0  0  0  0  0  0  0  0  0  0  0  0
  304.8330   11.3540   10.1470 C   0  0  0  0  0  0  0  0  0  0  0  0
  295.9060    9.4010   11.4870 C   0  0  0  0  0  0  0  0  0  0  0  0
  292.4100   10.0070   11.8060 C   0  0  1  0  0  0  0  0  0  0  0  0
  293.1330   12.4020   10.6400 N   0  0  0  0  0  0  0  0  0  0  0  0
  294.6100    9.1740   11.9180 C   0  0  1  0  0  0  0  0  0  0  0  0
  293.6630   10.1500   11.2270 C   0  0  1  0  0  0  0  0  0  0  0  0
  7  1  1  0
  9  8  1  0
 16 11  1  0
 17 12  1  0
 18 13  1  0
 19 14  1  0
 20 15  1  0
 21 10  1  0
 27 23  1  0
 28 22  1  0
 29 27  1  0
 30 29  1  0
 31 25  1  0
 32  3  1  0
 32 24  1  0
 32 10  1  0
 33 11  1  0
 33 12  1  0
 33  7  1  0
 34 14  1  0
 34  8  1  1
 34 13  1  0
 35 22  1  0
 35 15  1  0
 35  9  1  0
 36 24  1  0
 36  4  1  0
 37 25  1  0
 37 16  1  0
 37 17  1  0
 38 19  1  0
 38 18  1  0
 38 31  1  0
 39 28  1  0
 39 20  1  0
 40 36  1  0
 40 21  1  1
 41 23  1  0
 41 30  1  0
 41 26  1  0
 42  5  1  1
 42 39  1  0
 42  6  1  0
 43  2  1  6
 43 40  1  0
 43 26  1  0
 43 42  1  0
M  END
$$$$
