
     RDKit          3D

 42 47  0  0  0  0  0  0  0  0999 V2000
  -91.9570  170.8790  -15.2410 C   0  0  2  0  0  0  0  0  0  0  0  0
  -92.9040  170.0010  -15.7730 C   0  0  0  0  0  0  0  0  0  0  0  0
  -85.0390  163.1580  -15.1260 C   0  0  0  0  0  0  0  0  0  0  0  0
  -83.8920  157.8960  -13.9580 C   0  0  0  0  0  0  0  0  0  0  0  0
  -84.1340  159.2220  -13.6020 C   0  0  0  0  0  0  0  0  0  0  0  0
  -91.3410  168.1930  -15.7540 C   0  0  1  0  0  0  0  0  0  0  0  0
  -91.0730  166.9240  -15.9090 C   0  0  1  0  0  0  0  0  0  0  0  0
  -91.1030  172.8640  -14.4520 C   0  0  0  0  0  0  0  0  0  0  0  0
  -81.0800  161.4850  -12.0690 C   0  0  0  0  0  0  0  0  0  0  0  0
  -80.3020  160.8980  -11.2260 C   0  0  0  0  0  0  0  0  0  0  0  0
  -82.2910  160.4770  -10.7360 C   0  0  0  0  0  0  0  0  0  0  0  0
  -91.9670  166.0050  -16.0390 N   0  0  0  0  0  0  0  0  0  0  0  0
  -84.0770  163.7020  -15.6080 O   0  0  0  0  0  0  0  0  0  0  0  0
  -82.5490  159.8590  -15.2950 C   0  0  0  0  0  0  0  0  0  0  0  0
  -87.4400  162.9150  -15.0240 C   0  0  0  0  0  0  0  0  0  0  0  0
  -88.6750  163.4820  -15.2490 C   0  0  0  0  0  0  0  0  0  0  0  0
  -86.4390  164.8390  -15.8620 C   0  0  0  0  0  0  0  0  0  0  0  0
  -87.6730  165.4160  -16.0240 C   0  0  0  0  0  0  0  0  0  0  0  0
  -86.3120  163.5770  -15.3700 C   0  0  1  0  0  0  0  0  0  0  0  0
  -83.4450  160.2050  -14.3030 C   0  0  0  0  0  0  0  0  0  0  0  0
  -92.2440  172.2200  -15.0530 O   0  0  0  0  0  0  0  0  0  0  0  0
  -81.0520  160.2490  -10.3720 N   0  0  0  0  0  0  0  0  0  0  0  0
  -91.2190  164.9340  -15.9890 N   0  0  0  0  0  0  0  0  0  0  0  0
  -89.9880  165.3740  -15.9260 C   0  0  1  0  0  0  0  0  0  0  0  0
  -88.8260  164.7600  -15.7000 C   0  0  1  0  0  0  0  0  0  0  0  0
  -83.0000  157.5040  -14.9510 C   0  0  0  0  0  0  0  0  0  0  0  0
  -93.6880  167.6100  -16.4660 F   0  0  0  0  0  0  0  0  0  0  0  0
  -82.3300  158.5230  -15.6160 C   0  0  0  0  0  0  0  0  0  0  0  0
  -92.6240  168.6440  -15.9660 C   0  0  0  0  0  0  0  0  0  0  0  0
  -90.5190  174.3980  -15.7880 F   0  0  0  0  0  0  0  0  0  0  0  0
  -89.8240  174.5790  -14.0540 F   0  0  0  0  0  0  0  0  0  0  0  0
  -91.6720  174.9360  -14.4140 F   0  0  0  0  0  0  0  0  0  0  0  0
  -90.6670  170.3760  -15.0850 C   0  0  0  0  0  0  0  0  0  0  0  0
  -90.3660  169.0590  -15.3050 C   0  0  0  0  0  0  0  0  0  0  0  0
  -81.6980  161.1170  -16.1290 Cl  0  0  0  0  0  0  0  0  0  0  0  0
  -82.7850  155.8840  -15.2930 Cl  0  0  0  0  0  0  0  0  0  0  0  0
  -83.6170  161.5450  -13.9770 C   0  0  2  0  0  0  0  0  0  0  0  0
  -83.5340  161.6940  -12.4570 C   0  0  0  0  0  0  0  0  0  0  0  0
  -82.3120  161.2280  -11.7850 N   0  0  0  0  0  0  0  0  0  0  0  0
  -84.9370  162.0930  -14.3180 N   0  0  0  0  0  0  0  0  0  0  0  0
  -90.0630  166.4860  -15.7360 O   0  0  0  0  0  0  0  0  0  0  0  0
  -90.8110  174.3010  -14.7120 C   0  0  2  0  0  0  0  0  0  0  0  0
  2  1  1  0
  5  4  1  0
  7  6  1  0
 10  9  1  0
  7 12  1  6
 13  3  1  0
 16 15  1  0
 18 17  1  0
 19 15  1  0
 19  3  1  1
 19 17  1  0
 20 14  1  0
 20  5  1  0
 21  8  1  0
  1 21  1  6
 22 11  1  0
 22 10  1  0
 23 12  1  0
 24 23  1  6
 24  7  1  0
 25 16  1  6
 25 24  1  0
 25 18  1  0
 26  4  1  0
 28 26  1  0
 28 14  1  0
 29 27  1  0
 29  2  1  0
 29  6  1  0
 33  1  1  0
  6 34  1  1
 34 33  1  0
 35 14  1  0
 36 26  1  0
 37 20  1  0
 37 38  1  1
 39 38  1  0
 39 11  1  0
 39  9  1  0
 40 37  1  0
 40  3  1  0
 41 24  1  0
 41  7  1  0
 42 30  1  6
 42  8  1  0
 42 32  1  0
 42 31  1  0
M  END
$$$$
