
     RDKit          3D

 28 28  0  0  0  0  0  0  0  0999 V2000
  -23.1770   60.8540   -4.9300 C   0  0  0  0  0  0  0  0  0  0  0  0
  -21.9890   60.8570   -5.2540 O   0  0  0  0  0  0  0  0  0  0  0  0
  -23.6040   60.3720   -3.5740 C   0  0  2  0  0  0  0  0  0  0  0  0
  -24.9820   59.9860   -3.6110 O   0  0  0  0  0  0  0  0  0  0  0  0
  -23.3270   61.1570   -2.3160 C   0  0  1  0  0  0  0  0  0  0  0  0
  -21.8480   61.3920   -2.2210 C   0  0  0  0  0  0  0  0  0  0  0  0
  -24.0160   62.4890   -2.3580 C   0  0  0  0  0  0  0  0  0  0  0  0
  -23.7880   60.4100   -1.0950 C   0  0  0  0  0  0  0  0  0  0  0  0
  -19.4870   60.1950   -1.8910 P   0  0  0  0  0  0  0  0  0  0  0  0
  -19.0240   58.6720   -1.6670 O   0  0  0  0  0  0  0  0  0  0  0  0
  -21.0490   60.2280   -2.2660 O   0  0  0  0  0  0  0  0  0  0  0  0
  -18.6490   60.8200   -3.1110 O   0  0  0  0  0  0  0  0  0  0  0  0
  -24.1990   61.3430   -5.8280 N   0  0  0  0  0  0  0  0  0  0  0  0
  -23.8800   61.8550   -7.1410 C   0  0  0  0  0  0  0  0  0  0  0  0
  -24.4880   63.2590   -7.2940 C   0  0  0  0  0  0  0  0  0  0  0  0
  -25.9230   63.1200   -7.7000 C   0  0  0  0  0  0  0  0  0  0  0  0
  -26.2930   62.1060   -8.2980 O   0  0  0  0  0  0  0  0  0  0  0  0
  -33.5370   65.4670  -10.2120 C   0  0  0  0  0  0  0  0  0  0  0  0
  -34.3670   66.5320  -10.3960 N   0  0  0  0  0  0  0  0  0  0  0  0
  -33.6490   67.6930  -10.3030 C   0  0  0  0  0  0  0  0  0  0  0  0
  -32.3330   67.4010  -10.0550 N   0  0  0  0  0  0  0  0  0  0  0  0
  -32.2020   66.0430   -9.9850 C   0  0  0  0  0  0  0  0  0  0  0  0
  -31.0440   63.9860   -9.7050 O   0  0  0  0  0  0  0  0  0  0  0  0
  -30.9730   65.2180   -9.7270 C   0  0  0  0  0  0  0  0  0  0  0  0
  -29.4160   66.0770   -9.4420 S   0  0  0  0  0  0  0  0  0  0  0  0
  -28.3720   64.5800   -9.2240 C   0  0  0  0  0  0  0  0  0  0  0  0
  -28.2030   64.1100   -7.7650 C   0  0  0  0  0  0  0  0  0  0  0  0
  -26.7980   64.1210   -7.3960 N   0  0  0  0  0  0  0  0  0  0  0  0
  2  1  1  0
  3  1  1  0
  3  4  1  6
  5  3  1  0
  6  5  1  0
  5  7  1  6
  8  5  1  0
 10  9  1  0
 11  6  1  0
 11  9  1  0
 12  9  1  0
 13  1  1  0
 14 13  1  0
 15 14  1  0
 16 15  1  0
 17 16  1  0
 19 18  1  0
 20 19  1  0
 21 20  1  0
 22 18  1  0
 22 21  1  0
 24 23  1  0
 24 22  1  0
 25 24  1  0
 26 25  1  0
 27 26  1  0
 28 27  1  0
 28 16  1  0
M  END
$$$$
