
     RDKit          3D

 12 13  0  0  0  0  0  0  0  0999 V2000
   83.6790   14.5620    3.3250 C   0  0  0  0  0  0  0  0  0  0  0  0
   84.1610   13.4330    3.9700 C   0  0  0  0  0  0  0  0  0  0  0  0
   83.4450   12.2460    3.9200 C   0  0  0  0  0  0  0  0  0  0  0  0
   82.2460   12.1900    3.2250 C   0  0  0  0  0  0  0  0  0  0  0  0
   81.7630   13.3190    2.5800 C   0  0  0  0  0  0  0  0  0  0  0  0
   82.4800   14.5050    2.6300 C   0  0  0  0  0  0  0  0  0  0  0  0
   81.9620   15.7190    1.9370 C   0  0  0  0  0  0  0  0  0  0  0  0
   82.2450   17.0440    2.2410 C   0  0  0  0  0  0  0  0  0  0  0  0
   81.6020   17.8680    1.4060 N   0  0  0  0  0  0  0  0  0  0  0  0
   80.9210   17.0600    0.5850 C   0  0  0  0  0  0  0  0  0  0  0  0
   81.1190   15.7600    0.8810 N   0  0  0  0  0  0  0  0  0  0  0  0
   84.0450   10.8390    4.7240 Cl  0  0  0  0  0  0  0  0  0  0  0  0
  2  1  1  0
  3  2  1  0
  4  3  1  0
  5  4  1  0
  6  5  1  0
  6  1  1  0
  7  6  1  0
  8  7  1  0
  9  8  1  0
 10  9  1  0
 11 10  1  0
 11  7  1  0
 12  3  1  0
M  END
$$$$
