
     RDKit          3D

 16 15  0  0  0  0  0  0  0  0999 V2000
   -0.1940   29.5980  -10.3490 C   0  0  0  0  0  0  0  0  0  0  0  0
   -0.2910   28.3790  -10.0810 O   0  0  0  0  0  0  0  0  0  0  0  0
   -0.3270   30.4300   -9.4220 O   0  0  0  0  0  0  0  0  0  0  0  0
    0.0700   30.0610  -11.7670 C   0  0  0  0  0  0  0  0  0  0  0  0
    1.5650   30.1440  -12.0740 C   0  0  0  0  0  0  0  0  0  0  0  0
    2.2120   28.7680  -12.1830 C   0  0  0  0  0  0  0  0  0  0  0  0
    3.7190   28.8700  -12.4120 C   0  0  0  0  0  0  0  0  0  0  0  0
    4.3770   27.4940  -12.3390 C   0  0  0  0  0  0  0  0  0  0  0  0
    5.8790   27.5680  -12.6020 C   0  0  0  0  0  0  0  0  0  0  0  0
    6.5230   26.1900  -12.4910 C   0  0  0  0  0  0  0  0  0  0  0  0
    7.9340   26.1940  -13.0660 C   0  0  0  0  0  0  0  0  0  0  0  0
    8.7000   24.9160  -12.7300 C   0  0  0  0  0  0  0  0  0  0  0  0
   10.0040   24.8690  -13.5210 C   0  0  0  0  0  0  0  0  0  0  0  0
   11.0240   23.9200  -12.9070 C   0  0  0  0  0  0  0  0  0  0  0  0
   10.6960   22.4660  -13.2040 C   0  0  0  0  0  0  0  0  0  0  0  0
   11.8420   21.5560  -12.7670 C   0  0  0  0  0  0  0  0  0  0  0  0
  2  1  1  0
  3  1  1  0
  4  1  1  0
  5  4  1  0
  6  5  1  0
  7  6  1  0
  8  7  1  0
  9  8  1  0
 10  9  1  0
 11 10  1  0
 12 11  1  0
 13 12  1  0
 14 13  1  0
 15 14  1  0
 16 15  1  0
M  END
$$$$
