
     RDKit          3D

 21 24  0  0  0  0  0  0  0  0999 V2000
    1.5510   -5.5350   26.3170 C   0  0  0  0  0  0  0  0  0  0  0  0
    2.3460   -6.0140   25.1080 C   0  0  0  0  0  0  0  0  0  0  0  0
    3.7280   -6.3930   25.5000 C   0  0  0  0  0  0  0  0  0  0  0  0
    4.6740   -6.1660   24.7640 O   0  0  0  0  0  0  0  0  0  0  0  0
    3.8940   -7.0120   26.8090 C   0  0  0  0  0  0  0  0  0  0  0  0
    3.0040   -6.9030   27.8120 C   0  0  0  0  0  0  0  0  0  0  0  0
    3.3830   -7.2450   29.2260 C   0  0  0  0  0  0  0  0  0  0  0  0
    2.8300   -6.2410   30.2330 C   0  0  0  0  0  0  0  0  0  0  0  0
    1.3140   -6.1290   30.1220 C   0  0  2  0  0  0  0  0  0  0  0  0
    0.9230   -5.6630   28.7080 C   0  0  1  0  0  0  0  0  0  0  0  0
    1.5660   -6.4820   27.5400 C   0  0  1  0  0  0  0  0  0  0  0  0
   -0.6060   -5.5050   28.5550 C   0  0  0  0  0  0  0  0  0  0  0  0
   -1.2690   -4.6540   29.6440 C   0  0  0  0  0  0  0  0  0  0  0  0
   -0.8380   -5.0820   31.0460 C   0  0  1  0  0  0  0  0  0  0  0  0
    0.7050   -5.1260   31.1010 C   0  0  1  0  0  0  0  0  0  0  0  0
    1.0320   -5.1860   32.6000 C   0  0  0  0  0  0  0  0  0  0  0  0
   -0.2000   -4.5400   33.2920 C   0  0  0  0  0  0  0  0  0  0  0  0
   -1.0910   -4.0450   32.1420 C   0  0  2  0  0  0  0  0  0  0  0  0
   -2.4520   -3.8640   32.4990 O   0  0  0  0  0  0  0  0  0  0  0  0
   -1.5020   -6.4040   31.4550 C   0  0  0  0  0  0  0  0  0  0  0  0
    0.7720   -7.7770   27.2600 C   0  0  0  0  0  0  0  0  0  0  0  0
  2  1  1  0
  3  2  1  0
  4  3  1  0
  5  3  1  0
  6  5  1  0
  7  6  1  0
  8  7  1  0
  9  8  1  6
 10  9  1  0
 11  1  1  0
 11 10  1  0
 11  6  1  0
 10 12  1  1
 13 12  1  0
 14 13  1  0
 15  9  1  0
 15 14  1  0
 15 16  1  1
 17 16  1  0
 18 14  1  0
 18 17  1  0
 18 19  1  1
 14 20  1  1
 11 21  1  6
M  END
$$$$
