
     RDKit          3D

 18 17  0  0  0  0  0  0  0  0999 V2000
   68.5730   46.5300   24.0240 C   0  0  0  0  0  0  0  0  0  0  0  0
   67.7500   47.4200   24.3760 O   0  0  0  0  0  0  0  0  0  0  0  0
   68.3980   45.5570   23.2390 O   0  0  0  0  0  0  0  0  0  0  0  0
   70.0060   46.6770   24.6580 C   0  0  0  0  0  0  0  0  0  0  0  0
   70.7330   45.3670   24.9590 C   0  0  0  0  0  0  0  0  0  0  0  0
   70.3060   44.6960   26.2750 C   0  0  0  0  0  0  0  0  0  0  0  0
   71.0920   43.4130   26.5900 C   0  0  0  0  0  0  0  0  0  0  0  0
   70.2290   42.2510   27.1030 C   0  0  0  0  0  0  0  0  0  0  0  0
   70.4510   40.9390   26.3400 C   0  0  0  0  0  0  0  0  0  0  0  0
   70.0430   39.6830   27.1200 C   0  0  0  0  0  0  0  0  0  0  0  0
   68.5430   39.6150   27.4320 C   0  0  0  0  0  0  0  0  0  0  0  0
   67.9990   38.1840   27.5420 C   0  0  0  0  0  0  0  0  0  0  0  0
   68.2310   37.5340   28.9140 C   0  0  0  0  0  0  0  0  0  0  0  0
   66.9740   37.4880   29.7910 C   0  0  0  0  0  0  0  0  0  0  0  0
   67.2420   37.0680   31.2390 C   0  0  0  0  0  0  0  0  0  0  0  0
   66.0140   36.4610   31.9370 C   0  0  0  0  0  0  0  0  0  0  0  0
   66.0930   36.4880   33.4690 C   0  0  0  0  0  0  0  0  0  0  0  0
   64.8310   35.9460   34.1500 C   0  0  0  0  0  0  0  0  0  0  0  0
  2  1  1  0
  3  1  1  0
  4  1  1  0
  5  4  1  0
  6  5  1  0
  7  6  1  0
  8  7  1  0
  9  8  1  0
 10  9  1  0
 11 10  1  0
 12 11  1  0
 13 12  1  0
 14 13  1  0
 15 14  1  0
 16 15  1  0
 17 16  1  0
 18 17  1  0
M  END
$$$$
