
     RDKit          3D

 38 39  0  0  0  0  0  0  0  0999 V2000
    8.4250  -16.9130   21.6170 C   0  0  2  0  0  0  0  0  0  0  0  0
    8.4260  -17.5500   20.2280 C   0  0  2  0  0  0  0  0  0  0  0  0
    9.2070  -16.6780   19.2370 C   0  0  2  0  0  0  0  0  0  0  0  0
    6.9750  -17.6220   19.7530 C   0  0  2  0  0  0  0  0  0  0  0  0
    8.9830  -18.9820   20.2230 C   0  0  1  0  0  0  0  0  0  0  0  0
   10.4970  -19.1030   20.4910 C   0  0  0  0  0  0  0  0  0  0  0  0
   11.4000  -19.4940   19.5990 C   0  0  0  0  0  0  0  0  0  0  0  0
   11.0280  -19.8520   18.1690 C   0  0  0  0  0  0  0  0  0  0  0  0
   11.6700  -19.1490   17.1650 C   0  0  0  0  0  0  0  0  0  0  0  0
   11.3730  -19.4030   15.8440 C   0  0  0  0  0  0  0  0  0  0  0  0
   10.4200  -20.3540   15.5370 C   0  0  0  0  0  0  0  0  0  0  0  0
    9.7660  -21.0540   16.5350 C   0  0  0  0  0  0  0  0  0  0  0  0
   10.0750  -20.8060   17.8590 C   0  0  0  0  0  0  0  0  0  0  0  0
   10.4960  -19.0180   22.9500 C   0  0  0  0  0  0  0  0  0  0  0  0
   12.3000  -17.8310   23.2360 C   0  0  0  0  0  0  0  0  0  0  0  0
   11.0040  -18.7370   21.7870 N   0  0  0  0  0  0  0  0  0  0  0  0
   11.2960  -18.4580   23.8520 N   0  0  0  0  0  0  0  0  0  0  0  0
   12.1160  -18.0110   21.9510 N   0  0  0  0  0  0  0  0  0  0  0  0
    8.3130  -19.7390   21.2010 O   0  0  0  0  0  0  0  0  0  0  0  0
   10.0260  -20.6820   13.8410 Cl  0  0  0  0  0  0  0  0  0  0  0  0
    7.5490  -16.5390   21.8000 H   0  0  0  0  0  0  0  0  0  0  0  0
    9.0900  -16.2070   21.6490 H   0  0  0  0  0  0  0  0  0  0  0  0
    8.6350  -17.5860   22.2820 H   0  0  0  0  0  0  0  0  0  0  0  0
    8.7060  -16.6020   18.4090 H   0  0  0  0  0  0  0  0  0  0  0  0
   10.0690  -17.0850   19.0570 H   0  0  0  0  0  0  0  0  0  0  0  0
    9.3390  -15.7960   19.6170 H   0  0  0  0  0  0  0  0  0  0  0  0
    6.9500  -17.9430   18.8380 H   0  0  0  0  0  0  0  0  0  0  0  0
    6.5770  -16.7380   19.7960 H   0  0  0  0  0  0  0  0  0  0  0  0
    6.4780  -18.2290   20.3230 H   0  0  0  0  0  0  0  0  0  0  0  0
    8.7970  -19.3750   19.3560 H   0  0  0  0  0  0  0  0  0  0  0  0
   12.2960  -19.5110   19.8460 H   0  0  0  0  0  0  0  0  0  0  0  0
   12.3070  -18.5070   17.3820 H   0  0  0  0  0  0  0  0  0  0  0  0
   11.8040  -18.9330   15.1670 H   0  0  0  0  0  0  0  0  0  0  0  0
    9.1300  -21.6960   16.3150 H   0  0  0  0  0  0  0  0  0  0  0  0
    9.6350  -21.2670   18.5370 H   0  0  0  0  0  0  0  0  0  0  0  0
    9.7230  -19.5080   23.1170 H   0  0  0  0  0  0  0  0  0  0  0  0
   12.9990  -17.3680   23.6400 H   0  0  0  0  0  0  0  0  0  0  0  0
    8.2050  -20.5330   20.9200 H   0  0  0  0  0  0  0  0  0  0  0  0
  2  1  1  0
  3  2  1  0
  4  2  1  0
  2  5  1  1
  6  5  1  0
  7  6  1  0
  8  7  1  0
  9  8  1  0
 10  9  1  0
 11 10  1  0
 12 11  1  0
 13 12  1  0
 13  8  1  0
 16  6  1  0
 16 14  1  0
 17 14  1  0
 17 15  1  0
 18 16  1  0
 18 15  1  0
 19  5  1  0
 20 11  1  0
  1 21  1  1
 22  1  1  0
 23  1  1  0
  3 24  1  6
 25  3  1  0
 26  3  1  0
  4 27  1  6
 28  4  1  0
 29  4  1  0
  5 30  1  6
 31  7  1  0
 32  9  1  0
 33 10  1  0
 34 12  1  0
 35 13  1  0
 36 14  1  0
 37 15  1  0
 38 19  1  0
M  END
$$$$
