
     RDKit          3D

 24 25  0  0  0  0  0  0  0  0999 V2000
   52.9660   13.0570   59.7000 O   0  0  0  0  0  0  0  0  0  0  0  0
   53.7420   13.0670   60.9220 C   0  0  1  0  0  0  0  0  0  0  0  0
   53.5380   14.3780   61.7260 C   0  0  1  0  0  0  0  0  0  0  0  0
   54.5250   14.4130   62.7520 O   0  0  0  0  0  0  0  0  0  0  0  0
   54.0060   13.5860   63.7940 C   0  0  2  0  0  0  0  0  0  0  0  0
   54.9400   13.8000   64.9660 C   0  0  0  0  0  0  0  0  0  0  0  0
   53.9130   12.1150   63.3330 C   0  0  0  0  0  0  0  0  0  0  0  0
   53.4460   11.8600   61.8700 C   0  0  2  0  0  0  0  0  0  0  0  0
   54.0590   10.5420   61.4570 N   0  0  0  0  0  0  0  0  0  0  0  0
   53.3790    9.7450   60.4260 C   0  0  0  0  0  0  0  0  0  0  0  0
   55.5160   10.4050   61.3700 C   0  0  0  0  0  0  0  0  0  0  0  0
   53.3870   15.6110   60.9800 O   0  0  0  0  0  0  0  0  0  0  0  0
   54.3110   16.7380   61.0460 C   0  0  1  0  0  0  0  0  0  0  0  0
   53.6620   17.8230   60.2010 C   0  0  0  0  0  0  0  0  0  0  0  0
   52.4760   17.2310   59.4350 C   0  0  0  0  0  0  0  0  0  0  0  0
   51.2560   17.0730   60.3230 C   0  0  0  0  0  0  0  0  0  0  0  0
   50.8340   18.4620   60.7950 C   0  0  0  0  0  0  0  0  0  0  0  0
   49.8960   18.3870   61.9830 C   0  0  0  0  0  0  0  0  0  0  0  0
   50.1120   19.6060   62.8580 C   0  0  0  0  0  0  0  0  0  0  0  0
   51.5190   20.1720   62.7950 C   0  0  0  0  0  0  0  0  0  0  0  0
   52.3210   19.8930   64.0570 C   0  0  0  0  0  0  0  0  0  0  0  0
   53.7090   19.2990   63.7620 C   0  0  0  0  0  0  0  0  0  0  0  0
   53.5940   17.8370   63.3180 C   0  0  0  0  0  0  0  0  0  0  0  0
   54.7140   17.3640   62.3980 C   0  0  0  0  0  0  0  0  0  0  0  0
  2  1  1  6
  3  2  1  0
  4  3  1  0
  5  4  1  0
  5  6  1  1
  7  5  1  0
  8  7  1  0
  8  2  1  0
  8  9  1  6
 10  9  1  0
 11  9  1  0
  3 12  1  6
 13 12  1  1
 14 13  1  0
 15 14  1  0
 16 15  1  0
 17 16  1  0
 18 17  1  0
 19 18  1  0
 20 19  1  0
 21 20  1  0
 22 21  1  0
 23 22  1  0
 24 23  1  0
 24 13  1  0
M  END
$$$$
