
     RDKit          3D

 27 27  0  0  0  0  0  0  0  0999 V2000
  -19.3930   -7.1490   12.4270 N   0  0  0  0  0  0  0  0  0  0  0  0
  -22.8360   -4.9420    3.8390 C   0  0  0  0  0  0  0  0  0  0  0  0
  -23.8300   -2.6000    7.2480 O   0  0  0  0  0  0  0  0  0  0  0  0
  -23.2150   -4.2530    4.8830 C   0  0  0  0  0  0  0  0  0  0  0  0
  -21.5430   -2.0670    7.3740 O   0  0  0  0  0  0  0  0  0  0  0  0
  -24.1910   -3.1230    4.8120 C   0  0  1  0  0  0  0  0  0  0  0  0
  -21.0760   -6.0310    9.2060 O   0  0  0  0  0  0  0  0  0  0  0  0
  -25.5710   -3.7760    4.9350 C   0  0  0  0  0  0  0  0  0  0  0  0
  -19.2930   -5.1150   10.2760 O   0  0  0  0  0  0  0  0  0  0  0  0
  -23.8940   -2.0710    5.8970 C   0  0  1  0  0  0  0  0  0  0  0  0
  -20.7940   -6.0040    3.5390 O   0  0  0  0  0  0  0  0  0  0  0  0
  -24.8960   -0.9260    5.8350 C   0  0  0  0  0  0  0  0  0  0  0  0
  -26.1730   -1.2520    6.5450 C   0  0  0  0  0  0  0  0  0  0  0  0
  -22.4670   -2.8080    7.7580 C   0  0  0  0  0  0  0  0  0  0  0  0
  -22.2560   -3.9650    8.7310 C   0  0  2  0  0  0  0  0  0  0  0  0
  -22.0670   -3.4610   10.1450 C   0  0  0  0  0  0  0  0  0  0  0  0
  -21.0840   -4.8680    8.3340 C   0  0  2  0  0  0  0  0  0  0  0  0
  -20.0630   -6.0740   10.2180 C   0  0  2  0  0  0  0  0  0  0  0  0
  -19.9830   -7.3290   11.0960 C   0  0  0  0  0  0  0  0  0  0  0  0
  -17.9350   -6.9760   12.4340 C   0  0  0  0  0  0  0  0  0  0  0  0
  -19.7270   -8.3080   13.2610 C   0  0  0  0  0  0  0  0  0  0  0  0
  -21.1410   -5.3750    6.8780 C   0  0  1  0  0  0  0  0  0  0  0  0
  -19.7600   -5.8350    6.4520 C   0  0  0  0  0  0  0  0  0  0  0  0
  -22.1030   -6.5610    6.6540 C   0  0  0  0  0  0  0  0  0  0  0  0
  -22.1790   -7.0780    5.1890 C   0  0  1  0  0  0  0  0  0  0  0  0
  -23.5200   -7.7840    4.8780 C   0  0  0  0  0  0  0  0  0  0  0  0
  -21.8690   -6.0090    4.1350 C   0  0  0  0  0  0  0  0  0  0  0  0
  4  2  1  0
  6  4  1  0
  6  8  1  1
 10  6  1  0
 10  3  1  0
 10 12  1  1
 13 12  1  0
 14  3  1  0
 14  5  1  0
 15 14  1  0
 15 16  1  1
 17 15  1  0
 17  7  1  1
 18  7  1  0
 18  9  1  6
 19 18  1  0
 19  1  1  0
 20  1  1  0
 21  1  1  0
 22 17  1  0
 22 23  1  1
 24 22  1  0
 25 24  1  0
 25 26  1  6
 27 25  1  0
 27  2  1  0
 27 11  1  0
M  END
$$$$
