
     RDKit          3D

 33 34  0  0  0  0  0  0  0  0999 V2000
   54.5810   16.9660   56.9550 O   0  0  0  0  0  0  0  0  0  0  0  0
   53.8740   16.2540   57.6790 C   0  0  2  0  0  0  0  0  0  0  0  0
   52.8130   16.7710   58.5880 C   0  0  0  0  0  0  0  0  0  0  0  0
   54.1410   14.7750   57.7980 C   0  0  2  0  0  0  0  0  0  0  0  0
   52.8960   13.9880   57.3450 C   0  0  0  0  0  0  0  0  0  0  0  0
   54.7280   14.6510   59.2380 C   0  0  0  0  0  0  0  0  0  0  0  0
   54.2590   13.6300   60.2840 C   0  0  2  0  0  0  0  0  0  0  0  0
   52.8290   13.0890   60.1360 C   0  0  0  0  0  0  0  0  0  0  0  0
   54.5230   14.1640   61.7180 C   0  0  1  0  0  0  0  0  0  0  0  0
   53.4610   15.0390   62.4100 C   0  0  1  0  0  0  0  0  0  0  0  0
   53.5350   14.9480   63.9440 C   0  0  0  0  0  0  0  0  0  0  0  0
   53.4860   16.4850   62.0440 C   0  0  0  0  0  0  0  0  0  0  0  0
   54.5110   17.1300   62.1450 O   0  0  0  0  0  0  0  0  0  0  0  0
   52.2050   17.0440   61.6000 O   0  0  0  0  0  0  0  0  0  0  0  0
   52.0710   18.4320   61.2520 C   0  0  2  0  0  0  0  0  0  0  0  0
   51.2010   19.1060   62.3240 C   0  0  0  0  0  0  0  0  0  0  0  0
   50.0600   19.9540   61.8160 C   0  0  0  0  0  0  0  0  0  0  0  0
   51.5190   18.5180   59.8210 C   0  0  2  0  0  0  0  0  0  0  0  0
   50.1820   17.7640   59.6810 C   0  0  0  0  0  0  0  0  0  0  0  0
   52.5950   18.0690   58.8280 C   0  0  0  0  0  0  0  0  0  0  0  0
   54.4180   13.0490   62.5740 O   0  0  0  0  0  0  0  0  0  0  0  0
   55.5100   12.1640   62.8800 C   0  0  1  0  0  0  0  0  0  0  0  0
   56.6000   12.6510   63.1540 O   0  0  0  0  0  0  0  0  0  0  0  0
   55.1450   10.6850   62.8860 C   0  0  0  0  0  0  0  0  0  0  0  0
   56.0300    9.6330   63.4620 C   0  0  2  0  0  0  0  0  0  0  0  0
   57.3900    9.9400   64.0440 C   0  0  0  0  0  0  0  0  0  0  0  0
   57.2890   10.7760   65.2300 N   0  0  0  0  0  0  0  0  0  0  0  0
   56.9260    9.9500   66.3640 C   0  0  0  0  0  0  0  0  0  0  0  0
   58.5200   11.5330   65.4660 C   0  0  0  0  0  0  0  0  0  0  0  0
   55.5900    8.3210   63.4020 C   0  0  0  0  0  0  0  0  0  0  0  0
   54.3520    7.9940   62.8400 C   0  0  0  0  0  0  0  0  0  0  0  0
   53.5100    8.9690   62.3190 C   0  0  0  0  0  0  0  0  0  0  0  0
   53.9030   10.2940   62.3470 C   0  0  0  0  0  0  0  0  0  0  0  0
  2  1  1  1
  3  2  1  0
  4  2  1  0
  4  5  1  1
  6  4  1  0
  7  6  1  0
  7  8  1  1
  9  7  1  0
 10  9  1  0
 10 11  1  1
 12 10  1  0
 13 12  1  0
 14 12  1  0
 15 14  1  0
 15 16  1  1
 17 16  1  0
 18 15  1  0
 18 19  1  1
 20 18  1  0
 20  3  1  0
  9 21  1  1
 22 21  1  0
 22 23  1  1
 24 22  1  0
 25 24  1  0
 25 26  1  6
 27 26  1  0
 28 27  1  0
 29 27  1  0
 30 25  1  0
 31 30  1  0
 32 31  1  0
 33 32  1  0
 33 24  1  0
M  END
$$$$
