
     RDKit          3D

 21 21  0  0  0  0  0  0  0  0999 V2000
    4.3400  -14.4720  -16.8060 C   0  0  0  0  0  0  0  0  0  0  0  0
    5.6830  -14.7240  -16.1260 C   0  0  1  0  0  0  0  0  0  0  0  0
    6.7480  -13.8650  -16.8290 C   0  0  0  0  0  0  0  0  0  0  0  0
    6.7850  -14.1510  -18.3410 C   0  0  1  0  0  0  0  0  0  0  0  0
    7.8350  -13.2600  -19.0010 C   0  0  0  0  0  0  0  0  0  0  0  0
    7.1700  -15.6130  -18.5470 C   0  0  0  0  0  0  0  0  0  0  0  0
    6.5110  -16.3340  -19.2270 O   0  0  0  0  0  0  0  0  0  0  0  0
    8.4470  -16.1320  -17.8570 C   0  0  0  0  0  0  0  0  0  0  0  0
    9.2010  -16.9250  -17.0820 C   0  0  0  0  0  0  0  0  0  0  0  0
    9.5300  -18.0830  -16.1350 C   0  0  1  0  0  0  0  0  0  0  0  0
   10.9970  -17.9010  -15.7410 C   0  0  0  0  0  0  0  0  0  0  0  0
    8.6280  -17.9980  -14.9070 C   0  0  1  0  0  0  0  0  0  0  0  0
    9.3030  -18.6610  -13.6940 C   0  0  0  0  0  0  0  0  0  0  0  0
    9.2510  -20.2060  -13.7300 C   0  0  0  0  0  0  0  0  0  0  0  0
    8.4230  -16.6370  -14.6290 O   0  0  0  0  0  0  0  0  0  0  0  0
    7.1310  -16.2970  -14.1340 C   0  0  0  0  0  0  0  0  0  0  0  0
    6.3230  -17.1440  -13.9290 O   0  0  0  0  0  0  0  0  0  0  0  0
    6.8080  -14.8170  -13.8560 C   0  0  2  0  0  0  0  0  0  0  0  0
    6.5380  -14.6420  -12.3620 C   0  0  0  0  0  0  0  0  0  0  0  0
    5.5780  -14.3450  -14.6430 C   0  0  1  0  0  0  0  0  0  0  0  0
    5.4730  -12.9530  -14.5320 O   0  0  0  0  0  0  0  0  0  0  0  0
  2  1  1  6
  3  2  1  0
  4  3  1  0
  4  5  1  6
  6  4  1  0
  7  6  1  0
  8  6  1  0
  9  8  1  0
 10  9  1  0
 10 11  1  1
 12 10  1  0
 12 13  1  1
 14 13  1  0
 15 12  1  0
 16 15  1  0
 17 16  1  0
 18 16  1  0
 18 19  1  1
 20 18  1  0
 20  2  1  0
 20 21  1  6
M  END
$$$$
