
     RDKit          3D

 18 20  0  0  0  0  0  0  0  0999 V2000
    2.6620   12.8100   39.8960 C   0  0  0  0  0  0  0  0  0  0  0  0
    3.3440   13.0500   41.0520 C   0  0  0  0  0  0  0  0  0  0  0  0
    2.6780   13.5890   42.1900 C   0  0  0  0  0  0  0  0  0  0  0  0
    1.2830   13.8890   42.1060 C   0  0  0  0  0  0  0  0  0  0  0  0
    0.5780   13.6620   40.9150 C   0  0  0  0  0  0  0  0  0  0  0  0
    1.1990   13.1340   39.8350 C   0  0  0  0  0  0  0  0  0  0  0  0
    0.4200   12.8780   38.5720 C   0  0  2  0  0  0  0  0  0  0  0  0
   -0.3910   13.8590   38.1100 C   0  0  0  0  0  0  0  0  0  0  0  0
   -1.1680   13.6470   36.9570 C   0  0  0  0  0  0  0  0  0  0  0  0
    0.3940   11.5650   37.9020 C   0  0  0  0  0  0  0  0  0  0  0  0
   -0.3390   11.3630   36.7630 C   0  0  0  0  0  0  0  0  0  0  0  0
   -1.1630   12.3950   36.2480 C   0  0  0  0  0  0  0  0  0  0  0  0
   -2.0190   12.2190   34.9570 C   0  0  0  0  0  0  0  0  0  0  0  0
   -3.1040   11.2850   35.1940 N   0  0  0  0  0  0  0  0  0  0  0  0
   -4.0750   11.4500   36.0720 C   0  0  0  0  0  0  0  0  0  0  0  0
   -4.8400   10.2830   36.1130 C   0  0  0  0  0  0  0  0  0  0  0  0
   -4.2460    9.4140   35.2410 N   0  0  0  0  0  0  0  0  0  0  0  0
   -3.1890    9.9760   34.6710 C   0  0  0  0  0  0  0  0  0  0  0  0
  2  1  1  0
  3  2  1  0
  4  3  1  0
  5  4  1  0
  6  5  1  0
  6  1  1  0
  7  6  1  1
  8  7  1  0
  9  8  1  0
 10  7  1  0
 11 10  1  0
 12 11  1  0
 12  9  1  0
 13 12  1  0
 14 13  1  0
 15 14  1  0
 16 15  1  0
 17 16  1  0
 18 17  1  0
 18 14  1  0
M  END
$$$$
