
     RDKit          3D

 76 80  0  0  0  0  0  0  0  0999 V2000
   16.8320  -40.1790   18.1760 C   0  0  2  0  0  0  0  0  0  0  0  0
   17.2370  -41.1310   19.3080 C   0  0  2  0  0  0  0  0  0  0  0  0
   17.9390  -39.8620   17.2110 C   0  0  0  0  0  0  0  0  0  0  0  0
   17.8410  -42.4360   18.7640 C   0  0  2  0  0  0  0  0  0  0  0  0
   18.4110  -44.2560   16.2090 C   0  0  0  0  0  0  0  0  0  0  0  0
   19.4660  -43.6780   16.5220 O   0  0  0  0  0  0  0  0  0  0  0  0
   17.1170  -43.9940   16.8860 C   0  0  0  0  0  0  0  0  0  0  0  0
   16.8410  -43.2250   17.9480 C   0  0  0  0  0  0  0  0  0  0  0  0
   19.9080  -44.2760   13.4490 C   0  0  2  0  0  0  0  0  0  0  0  0
   19.5280  -45.4210   14.3690 C   0  0  2  0  0  0  0  0  0  0  0  0
   18.3560  -45.1160   15.1900 N   0  0  0  0  0  0  0  0  0  0  0  0
   18.8780  -44.0510   12.3500 C   0  0  1  0  0  0  0  0  0  0  0  0
   19.0070  -40.1750   14.9320 C   0  0  2  0  0  0  0  0  0  0  0  0
   18.0350  -40.3600   15.9930 C   0  0  0  0  0  0  0  0  0  0  0  0
   20.1430  -40.8650   12.7490 C   0  0  0  0  0  0  0  0  0  0  0  0
   19.0140  -40.8910   13.7330 C   0  0  1  0  0  0  0  0  0  0  0  0
   19.8550  -41.8150   11.8630 N   0  0  0  0  0  0  0  0  0  0  0  0
   18.6360  -42.5660   12.0730 C   0  0  2  0  0  0  0  0  0  0  0  0
   18.0390  -41.8220   13.2660 C   0  0  1  0  0  0  0  0  0  0  0  0
   21.1250  -40.1550   12.6980 O   0  0  0  0  0  0  0  0  0  0  0  0
   16.9560  -42.0780   13.7360 O   0  0  0  0  0  0  0  0  0  0  0  0
   16.0090  -41.4260   20.1860 C   0  0  2  0  0  0  0  0  0  0  0  0
   15.4680  -40.0800   20.6950 C   0  0  1  0  0  0  0  0  0  0  0  0
   14.9780  -39.1600   19.5750 C   0  0  2  0  0  0  0  0  0  0  0  0
   16.0660  -38.9050   18.5360 C   0  0  2  0  0  0  0  0  0  0  0  0
   16.2780  -42.1820   21.4660 C   0  0  1  0  0  0  0  0  0  0  0  0
   15.0210  -41.9040   22.3050 C   0  0  2  0  0  0  0  0  0  0  0  0
   14.4460  -40.5910   21.7420 C   0  0  1  0  0  0  0  0  0  0  0  0
   15.3580  -41.6090   23.7760 C   0  0  2  0  0  0  0  0  0  0  0  0
   14.3210  -40.5530   24.1530 C   0  0  2  0  0  0  0  0  0  0  0  0
   14.3620  -39.6250   22.9350 C   0  0  2  0  0  0  0  0  0  0  0  0
   14.5960  -37.9100   20.1290 O   0  0  0  0  0  0  0  0  0  0  0  0
   13.1870  -38.6570   22.8510 C   0  0  2  0  0  0  0  0  0  0  0  0
   14.5570  -39.7320   25.4130 C   0  0  1  0  0  0  0  0  0  0  0  0
   19.9910  -39.3710   15.1910 O   0  0  0  0  0  0  0  0  0  0  0  0
   14.9200  -40.5350   26.5890 C   0  0  2  0  0  0  0  0  0  0  0  0
   16.1070  -40.7410   17.5900 H   0  0  0  0  0  0  0  0  0  0  0  0
   17.9870  -40.6570   19.9380 H   0  0  0  0  0  0  0  0  0  0  0  0
   18.7030  -39.1710   17.5650 H   0  0  0  0  0  0  0  0  0  0  0  0
   18.2200  -43.0450   19.5830 H   0  0  0  0  0  0  0  0  0  0  0  0
   18.7250  -42.2200   18.1660 H   0  0  0  0  0  0  0  0  0  0  0  0
   16.2650  -44.5100   16.4450 H   0  0  0  0  0  0  0  0  0  0  0  0
   15.8110  -43.1320   18.2900 H   0  0  0  0  0  0  0  0  0  0  0  0
   20.8900  -44.4450   13.0120 H   0  0  0  0  0  0  0  0  0  0  0  0
   20.0530  -43.3590   14.0180 H   0  0  0  0  0  0  0  0  0  0  0  0
   20.3670  -45.6670   15.0180 H   0  0  0  0  0  0  0  0  0  0  0  0
   19.3330  -46.3180   13.7830 H   0  0  0  0  0  0  0  0  0  0  0  0
   17.4920  -45.5920   14.9480 H   0  0  0  0  0  0  0  0  0  0  0  0
   19.1880  -44.5650   11.4420 H   0  0  0  0  0  0  0  0  0  0  0  0
   17.9450  -44.5500   12.6100 H   0  0  0  0  0  0  0  0  0  0  0  0
   17.2650  -41.0530   15.6570 H   0  0  0  0  0  0  0  0  0  0  0  0
   20.4490  -42.0230   11.0660 H   0  0  0  0  0  0  0  0  0  0  0  0
   18.0060  -42.4570   11.1910 H   0  0  0  0  0  0  0  0  0  0  0  0
   15.2740  -41.9630   19.5890 H   0  0  0  0  0  0  0  0  0  0  0  0
   16.2480  -39.5120   21.2000 H   0  0  0  0  0  0  0  0  0  0  0  0
   14.1260  -39.6330   19.0890 H   0  0  0  0  0  0  0  0  0  0  0  0
   15.6320  -38.4710   17.6370 H   0  0  0  0  0  0  0  0  0  0  0  0
   16.7610  -38.1490   18.8980 H   0  0  0  0  0  0  0  0  0  0  0  0
   16.4270  -43.2500   21.3130 H   0  0  0  0  0  0  0  0  0  0  0  0
   17.1810  -41.8540   21.9790 H   0  0  0  0  0  0  0  0  0  0  0  0
   14.2790  -42.6940   22.1970 H   0  0  0  0  0  0  0  0  0  0  0  0
   13.4750  -40.8040   21.2960 H   0  0  0  0  0  0  0  0  0  0  0  0
   16.3810  -41.2540   23.8990 H   0  0  0  0  0  0  0  0  0  0  0  0
   15.2940  -42.5000   24.3980 H   0  0  0  0  0  0  0  0  0  0  0  0
   13.3980  -41.1150   24.2830 H   0  0  0  0  0  0  0  0  0  0  0  0
   15.2640  -39.0160   22.9830 H   0  0  0  0  0  0  0  0  0  0  0  0
   14.4630  -37.2950   19.3610 H   0  0  0  0  0  0  0  0  0  0  0  0
   12.2400  -39.1860   22.7510 H   0  0  0  0  0  0  0  0  0  0  0  0
   13.2780  -37.9910   21.9940 H   0  0  0  0  0  0  0  0  0  0  0  0
   13.1180  -38.0340   23.7410 H   0  0  0  0  0  0  0  0  0  0  0  0
   15.3290  -38.9910   25.2080 H   0  0  0  0  0  0  0  0  0  0  0  0
   13.6650  -39.1420   25.6180 H   0  0  0  0  0  0  0  0  0  0  0  0
   19.9590  -39.0200   16.1200 H   0  0  0  0  0  0  0  0  0  0  0  0
   15.9760  -40.4250   26.8310 H   0  0  0  0  0  0  0  0  0  0  0  0
   14.7290  -41.5940   26.4160 H   0  0  0  0  0  0  0  0  0  0  0  0
   14.3460  -40.2340   27.4640 H   0  0  0  0  0  0  0  0  0  0  0  0
  2  1  1  0
  3  1  1  0
  4  2  1  0
  6  5  1  0
  7  5  1  0
  8  7  1  0
  8  4  1  0
 10  9  1  0
 11 10  1  0
 11  5  1  0
 12  9  1  0
 14 13  1  0
 14  3  1  0
 16 15  1  1
 16 13  1  0
 17 15  1  0
 18 12  1  0
 18 17  1  0
 19 18  1  0
 19 16  1  0
 20 15  1  0
 19 21  1  1
 22  2  1  0
 23 22  1  0
 24 23  1  0
 25 24  1  0
 25  1  1  0
 26 22  1  0
 27 26  1  0
 28 23  1  0
 28 27  1  0
 29 27  1  0
 30 29  1  0
 31 28  1  0
 31 30  1  0
 32 24  1  0
 33 31  1  0
 34 30  1  0
 13 35  1  1
 36 34  1  0
  1 37  1  6
  2 38  1  1
 39  3  1  0
  4 40  1  1
 41  4  1  0
 42  7  1  0
 43  8  1  0
  9 44  1  6
 45  9  1  0
 10 46  1  1
 47 10  1  0
 48 11  1  0
 12 49  1  6
 50 12  1  0
 51 14  1  0
 52 17  1  0
 18 53  1  6
 22 54  1  6
 23 55  1  1
 24 56  1  6
 25 57  1  6
 58 25  1  0
 26 59  1  6
 60 26  1  0
 27 61  1  1
 28 62  1  6
 29 63  1  6
 64 29  1  0
 30 65  1  1
 31 66  1  1
 67 32  1  0
 33 68  1  6
 69 33  1  0
 70 33  1  0
 34 71  1  6
 72 34  1  0
 73 35  1  0
 36 74  1  1
 75 36  1  0
 76 36  1  0
M  END
$$$$
