
     RDKit          3D

 17 19  0  0  0  0  0  0  0  0999 V2000
  -24.5120   30.4720   -6.7720 O   0  0  0  0  0  0  0  0  0  0  0  0
  -24.3120   29.9710   -5.6650 C   0  0  0  0  0  0  0  0  0  0  0  0
  -23.5570   28.6900   -5.4720 C   0  0  0  0  0  0  0  0  0  0  0  0
  -22.3330   28.4880   -6.3220 C   0  0  0  0  0  0  0  0  0  0  0  0
  -21.4750   27.4130   -6.0570 C   0  0  0  0  0  0  0  0  0  0  0  0
  -21.7410   26.5340   -5.0060 C   0  0  0  0  0  0  0  0  0  0  0  0
  -20.8900   25.4670   -4.7410 C   0  0  0  0  0  0  0  0  0  0  0  0
  -19.7630   25.2670   -5.5300 C   0  0  0  0  0  0  0  0  0  0  0  0
  -19.4870   26.1340   -6.5770 C   0  0  0  0  0  0  0  0  0  0  0  0
  -20.3380   27.2070   -6.8490 C   0  0  0  0  0  0  0  0  0  0  0  0
  -20.0610   28.0780   -7.9090 C   0  0  0  0  0  0  0  0  0  0  0  0
  -18.9360   27.8920   -8.7100 C   0  0  0  0  0  0  0  0  0  0  0  0
  -18.6820   28.7720   -9.7570 C   0  0  0  0  0  0  0  0  0  0  0  0
  -19.5400   29.8370  -10.0130 C   0  0  0  0  0  0  0  0  0  0  0  0
  -20.6620   30.0250   -9.2160 C   0  0  0  0  0  0  0  0  0  0  0  0
  -20.9200   29.1470   -8.1700 C   0  0  0  0  0  0  0  0  0  0  0  0
  -22.0430   29.3440   -7.3820 C   0  0  0  0  0  0  0  0  0  0  0  0
  2  1  1  0
  3  2  1  0
  4  3  1  0
  5  4  1  0
  6  5  1  0
  7  6  1  0
  8  7  1  0
  9  8  1  0
 10  9  1  0
 10  5  1  0
 11 10  1  0
 12 11  1  0
 13 12  1  0
 14 13  1  0
 15 14  1  0
 16 15  1  0
 16 11  1  0
 17  4  1  0
 17 16  1  0
M  END
$$$$
