
     RDKit          3D

 24 27  0  0  0  0  0  0  0  0999 V2000
  -35.9310   -2.1490   14.8610 F   0  0  0  0  0  0  0  0  0  0  0  0
  -36.4860   -3.7620   16.4780 C   0  0  0  0  0  0  0  0  0  0  0  0
  -34.1700   -3.0060   16.1630 C   0  0  0  0  0  0  0  0  0  0  0  0
  -32.1570   -1.6200   21.2930 C   0  0  0  0  0  0  0  0  0  0  0  0
  -36.0230   -4.5930   17.5030 C   0  0  0  0  0  0  0  0  0  0  0  0
  -33.7120   -3.8370   17.1890 C   0  0  0  0  0  0  0  0  0  0  0  0
  -31.1000   -0.5400   21.4230 C   0  0  0  0  0  0  0  0  0  0  0  0
  -30.0990   -3.1310   20.7340 C   0  0  0  0  0  0  0  0  0  0  0  0
  -34.5600   -7.9890   19.7220 C   0  0  0  0  0  0  0  0  0  0  0  0
  -34.8020   -6.9300   18.6160 C   0  0  0  0  0  0  0  0  0  0  0  0
  -34.0740   -6.1810   21.3710 C   0  0  0  0  0  0  0  0  0  0  0  0
  -27.6250   -0.8410   21.7730 C   0  0  0  0  0  0  0  0  0  0  0  0
  -33.8440   -3.8130   20.7060 C   0  0  0  0  0  0  0  0  0  0  0  0
  -34.7620   -7.5080   21.1330 N   0  0  0  0  0  0  0  0  0  0  0  0
  -32.4610   -4.1110   20.7290 O   0  0  0  0  0  0  0  0  0  0  0  0
  -28.8130   -0.0020   21.6030 O   0  0  0  0  0  0  0  0  0  0  0  0
  -28.0260   -2.1700   21.3330 O   0  0  0  0  0  0  0  0  0  0  0  0
  -35.5370   -2.9690   15.8420 C   0  0  0  0  0  0  0  0  0  0  0  0
  -31.6070   -2.9690   20.8040 C   0  0  1  0  0  0  0  0  0  0  0  0
  -34.6590   -4.6320   17.8400 C   0  0  0  0  0  0  0  0  0  0  0  0
  -29.7870   -0.7600   21.3550 C   0  0  1  0  0  0  0  0  0  0  0  0
  -29.3100   -2.1490   21.1590 C   0  0  1  0  0  0  0  0  0  0  0  0
  -34.5620   -5.1250   20.3410 C   0  0  1  0  0  0  0  0  0  0  0  0
  -34.1460   -5.5790   18.9370 C   0  0  1  0  0  0  0  0  0  0  0  0
  5  2  1  0
  6  3  1  0
  7  4  1  0
 10  9  1  0
 14 11  1  0
 14  9  1  0
 15 13  1  0
 16 12  1  0
 17 12  1  0
 18  3  1  0
 18  1  1  0
 18  2  1  0
 19 15  1  1
 19  8  1  0
 19  4  1  0
 20  6  1  0
 20  5  1  0
 21 16  1  0
 21  7  1  1
 22 21  1  0
 22 17  1  0
 22  8  1  6
 23 11  1  0
 23 13  1  1
 24 10  1  0
 24 23  1  0
 24 20  1  6
M  END
$$$$
