
     RDKit          3D

 19 20  0  0  0  0  0  0  0  0999 V2000
   -8.2200  -16.1770  -28.6420 C   0  0  0  0  0  0  0  0  0  0  0  0
   -8.5510  -14.8780  -29.0060 C   0  0  0  0  0  0  0  0  0  0  0  0
   -7.2680  -13.8110  -29.2480 Cl  0  0  0  0  0  0  0  0  0  0  0  0
   -9.9130  -14.4960  -29.1610 C   0  0  0  0  0  0  0  0  0  0  0  0
  -10.9140  -15.4610  -28.9430 C   0  0  0  0  0  0  0  0  0  0  0  0
  -12.5520  -15.0820  -29.1130 Cl  0  0  0  0  0  0  0  0  0  0  0  0
  -10.5560  -16.7660  -28.5780 C   0  0  0  0  0  0  0  0  0  0  0  0
   -9.2140  -17.1220  -28.4270 C   0  0  0  0  0  0  0  0  0  0  0  0
  -10.2160  -13.1640  -29.5280 N   0  0  0  0  0  0  0  0  0  0  0  0
   -9.4200  -10.9430  -29.1770 C   0  0  0  0  0  0  0  0  0  0  0  0
   -9.7460  -12.1890  -28.6290 C   0  0  0  0  0  0  0  0  0  0  0  0
   -9.5840  -12.3950  -27.2500 C   0  0  0  0  0  0  0  0  0  0  0  0
   -9.1020  -11.3620  -26.4440 C   0  0  0  0  0  0  0  0  0  0  0  0
   -8.7790  -10.1210  -27.0030 C   0  0  0  0  0  0  0  0  0  0  0  0
   -8.9400   -9.9120  -28.3740 C   0  0  0  0  0  0  0  0  0  0  0  0
   -9.5880  -10.7280  -30.6080 C   0  0  0  0  0  0  0  0  0  0  0  0
  -10.7950   -9.9890  -30.8370 C   0  0  0  0  0  0  0  0  0  0  0  0
  -11.8520  -10.4410  -30.4210 O   0  0  0  0  0  0  0  0  0  0  0  0
  -10.7720   -8.8390  -31.4910 O   0  0  0  0  0  0  0  0  0  0  0  0
  2  1  1  0
  3  2  1  0
  4  2  1  0
  5  4  1  0
  6  5  1  0
  7  5  1  0
  8  7  1  0
  8  1  1  0
  9  4  1  0
 11 10  1  0
 11  9  1  0
 12 11  1  0
 13 12  1  0
 14 13  1  0
 15 10  1  0
 15 14  1  0
 16 10  1  0
 17 16  1  0
 18 17  1  0
 19 17  1  0
M  END
$$$$
