
     RDKit          3D

 22 24  0  0  0  0  0  0  0  0999 V2000
   46.6590   45.0060   15.0380 C   0  0  1  0  0  0  0  0  0  0  0  0
   46.8060   44.7930   16.4530 O   0  0  0  0  0  0  0  0  0  0  0  0
   46.4960   43.6390   14.3580 C   0  0  0  0  0  0  0  0  0  0  0  0
   45.4130   45.9200   14.8750 C   0  0  0  0  0  0  0  0  0  0  0  0
   47.9500   45.7290   14.5560 C   0  0  0  0  0  0  0  0  0  0  0  0
   44.3340   45.6860   15.9560 C   0  0  0  0  0  0  0  0  0  0  0  0
   43.4690   44.4360   15.6900 C   0  0  1  0  0  0  0  0  0  0  0  0
   42.0070   44.8090   15.3660 C   0  0  0  0  0  0  0  0  0  0  0  0
   40.9850   43.8640   16.0320 C   0  0  0  0  0  0  0  0  0  0  0  0
   41.5180   43.2590   17.3460 C   0  0  0  0  0  0  0  0  0  0  0  0
   47.9030   45.9980   13.0720 N   0  0  0  0  0  0  0  0  0  0  0  0
   47.5830   42.7510   14.3620 C   0  0  0  0  0  0  0  0  0  0  0  0
   47.4960   41.4960   13.7640 C   0  0  0  0  0  0  0  0  0  0  0  0
   46.3130   41.1000   13.1450 C   0  0  0  0  0  0  0  0  0  0  0  0
   45.2210   41.9680   13.1290 C   0  0  0  0  0  0  0  0  0  0  0  0
   45.2990   43.2290   13.7290 C   0  0  0  0  0  0  0  0  0  0  0  0
   46.9050   46.7280   12.4580 C   0  0  0  0  0  0  0  0  0  0  0  0
   47.1740   46.7900   11.1240 C   0  0  0  0  0  0  0  0  0  0  0  0
   48.3040   46.1580   10.9190 N   0  0  0  0  0  0  0  0  0  0  0  0
   48.7730   45.6500   12.1070 C   0  0  0  0  0  0  0  0  0  0  0  0
   43.8850   44.2030   13.6650 Cl  0  0  0  0  0  0  0  0  0  0  0  0
   46.2040   39.5620   12.4040 Cl  0  0  0  0  0  0  0  0  0  0  0  0
  1  2  1  1
  3  1  1  0
  4  1  1  0
  5  1  1  0
  6  4  1  0
  7  6  1  0
  7  8  1  6
  9  8  1  0
 10  9  1  0
 11  5  1  0
 12  3  1  0
 13 12  1  0
 14 13  1  0
 15 14  1  0
 16 15  1  0
 16  3  1  0
 17 11  1  0
 18 17  1  0
 19 18  1  0
 20 19  1  0
 20 11  1  0
 21  7  1  0
 21 16  1  0
 22 14  1  0
M  END
$$$$
