
     RDKit          3D

 11 11  0  0  0  0  0  0  0  0999 V2000
  -23.1070   14.2180   -0.1010 C   0  0  0  0  0  0  0  0  0  0  0  0
  -24.6310   14.3990    0.0190 C   0  0  0  0  0  0  0  0  0  0  0  0
  -25.2860   14.6070    1.3940 C   0  0  0  0  0  0  0  0  0  0  0  0
  -24.4030   14.6340    2.6720 C   0  0  0  0  0  0  0  0  0  0  0  0
  -22.8620   14.4500    2.5610 C   0  0  0  0  0  0  0  0  0  0  0  0
  -22.2160   14.2420    1.1630 C   0  0  0  0  0  0  0  0  0  0  0  0
  -25.0490   14.8430    4.0380 Cl  0  0  0  0  0  0  0  0  0  0  0  0
  -21.9700   14.4750    3.8520 Cl  0  0  0  0  0  0  0  0  0  0  0  0
  -20.6710   14.0660    1.1030 Cl  0  0  0  0  0  0  0  0  0  0  0  0
  -26.7860   14.7790    1.4400 Cl  0  0  0  0  0  0  0  0  0  0  0  0
  -22.4750   14.0150   -1.4820 Cl  0  0  0  0  0  0  0  0  0  0  0  0
  2  1  1  0
  3  2  1  0
  4  3  1  0
  5  4  1  0
  6  5  1  0
  6  1  1  0
  7  4  1  0
  8  5  1  0
  9  6  1  0
 10  3  1  0
 11  1  1  0
M  END
$$$$
