
     RDKit          3D

  6  6  0  0  0  0  0  0  0  0999 V2000
  -36.2840  -25.0890   64.0540 N   0  0  0  0  0  0  0  0  0  0  0  0
  -37.5400  -25.1840   63.5360 C   0  0  0  0  0  0  0  0  0  0  0  0
  -38.4210  -24.9390   64.4890 N   0  0  0  0  0  0  0  0  0  0  0  0
  -37.7690  -24.6920   65.6230 C   0  0  0  0  0  0  0  0  0  0  0  0
  -36.4370  -24.7810   65.3770 C   0  0  0  0  0  0  0  0  0  0  0  0
  -35.0180  -25.2820   63.3310 C   0  0  0  0  0  0  0  0  0  0  0  0
  2  1  1  0
  3  2  1  0
  4  3  1  0
  5  1  1  0
  5  4  1  0
  6  1  1  0
M  END
$$$$
