
     RDKit          3D

 10 12  0  0  0  0  0  0  0  0999 V2000
   46.2640   44.9660   15.0150 C   0  0  1  0  0  0  0  0  0  0  0  0
   44.8820   44.3280   14.5600 C   0  0  0  0  0  0  0  0  0  0  0  0
   45.0260   43.4650   13.2610 C   0  0  1  0  0  0  0  0  0  0  0  0
   45.5950   44.3560   12.1070 C   0  0  0  0  0  0  0  0  0  0  0  0
   46.9610   44.9500   12.5490 C   0  0  2  0  0  0  0  0  0  0  0  0
   48.0010   43.7920   12.8280 C   0  0  0  0  0  0  0  0  0  0  0  0
   47.4440   42.8940   14.0080 C   0  0  1  0  0  0  0  0  0  0  0  0
   47.2260   43.7910   15.3200 C   0  0  0  0  0  0  0  0  0  0  0  0
   46.8040   45.8570   13.8200 C   0  0  0  0  0  0  0  0  0  0  0  0
   46.0470   42.2870   13.5880 C   0  0  0  0  0  0  0  0  0  0  0  0
  2  1  1  0
  3  2  1  1
  4  3  1  0
  5  4  1  0
  5  6  1  1
  7  6  1  6
  8  7  1  0
  1  8  1  6
  9  5  1  0
  9  1  1  0
 10  7  1  0
 10  3  1  0
M  END
$$$$
