
     RDKit          3D

 12 13  0  0  0  0  0  0  0  0999 V2000
  -14.0140   -8.9500    7.3760 C   0  0  2  0  0  0  0  0  0  0  0  0
  -14.3840   -8.6870    5.9570 C   0  0  0  0  0  0  0  0  0  0  0  0
  -13.6510   -8.3820    5.0180 O   0  0  0  0  0  0  0  0  0  0  0  0
  -15.9240   -8.8990    5.9050 C   0  0  0  0  0  0  0  0  0  0  0  0
  -16.0310   -9.2730    7.4100 C   0  0  1  0  0  0  0  0  0  0  0  0
  -15.6000  -10.6660    7.5310 C   0  0  2  0  0  0  0  0  0  0  0  0
  -16.1120  -11.2990    8.6090 O   0  0  0  0  0  0  0  0  0  0  0  0
  -14.0550  -10.4860    7.5790 C   0  0  0  0  0  0  0  0  0  0  0  0
  -15.0780   -8.5120    8.0240 C   0  0  1  0  0  0  0  0  0  0  0  0
  -14.9770   -8.7260    9.5040 C   0  0  0  0  0  0  0  0  0  0  0  0
  -15.3180   -7.0470    7.8200 C   0  0  0  0  0  0  0  0  0  0  0  0
  -12.6740   -8.3050    7.8570 C   0  0  0  0  0  0  0  0  0  0  0  0
  2  1  1  0
  3  2  1  0
  4  2  1  0
  5  4  1  6
  6  5  1  0
  6  7  1  1
  8  6  1  0
  8  1  1  0
  9  5  1  0
  9  1  1  0
  9 10  1  1
 11  9  1  0
  1 12  1  1
M  END
$$$$
