
     RDKit          3D

  8  9  0  0  0  0  0  0  0  0999 V2000
   46.7340   44.1500   15.2390 C   0  0  2  0  0  0  0  0  0  0  0  0
   45.2130   43.8570   15.0300 C   0  0  2  0  0  0  0  0  0  0  0  0
   45.0840   43.2690   13.5850 C   0  0  0  0  0  0  0  0  0  0  0  0
   46.5760   43.2830   13.1270 C   0  0  1  0  0  0  0  0  0  0  0  0
   47.0100   44.7560   12.8590 C   0  0  0  0  0  0  0  0  0  0  0  0
   47.1110   45.3570   14.2990 C   0  0  0  0  0  0  0  0  0  0  0  0
   47.3490   42.8980   14.4530 C   0  0  0  0  0  0  0  0  0  0  0  0
   44.2800   44.3250   15.6690 O   0  0  0  0  0  0  0  0  0  0  0  0
  2  1  1  0
  3  2  1  0
  4  3  1  1
  5  4  1  0
  6  5  1  0
  1  6  1  6
  7  4  1  0
  7  1  1  0
  2  8  1  6
M  END
$$$$
