
     RDKit          3D

 21 24  0  0  0  0  0  0  0  0999 V2000
  -17.8680   35.3670  -30.5000 C   0  0  0  0  0  0  0  0  0  0  0  0
  -17.0870   34.2850  -29.9890 C   0  0  0  0  0  0  0  0  0  0  0  0
  -17.1000   33.0860  -30.4260 O   0  0  0  0  0  0  0  0  0  0  0  0
  -16.1890   34.5660  -28.8540 C   0  0  0  0  0  0  0  0  0  0  0  0
  -15.3900   33.5890  -28.2760 C   0  0  0  0  0  0  0  0  0  0  0  0
  -14.5490   33.9090  -27.1860 C   0  0  0  0  0  0  0  0  0  0  0  0
  -14.5130   35.2250  -26.6890 C   0  0  0  0  0  0  0  0  0  0  0  0
  -13.7260   35.6080  -25.6270 C   0  0  0  0  0  0  0  0  0  0  0  0
  -13.7590   36.9280  -25.1770 C   0  0  0  0  0  0  0  0  0  0  0  0
  -14.5420   37.9080  -25.7770 C   0  0  0  0  0  0  0  0  0  0  0  0
  -15.3340   37.6140  -26.8500 C   0  0  0  0  0  0  0  0  0  0  0  0
  -15.3220   36.2980  -27.2780 C   0  0  0  0  0  0  0  0  0  0  0  0
  -16.1660   35.9490  -28.3710 C   0  0  0  0  0  0  0  0  0  0  0  0
  -16.9170   36.9800  -28.8780 O   0  0  0  0  0  0  0  0  0  0  0  0
  -17.7550   36.6930  -29.9300 C   0  0  0  0  0  0  0  0  0  0  0  0
  -18.4770   37.9290  -30.3250 C   0  0  0  0  0  0  0  0  0  0  0  0
  -18.0840   39.0990  -29.6620 C   0  0  0  0  0  0  0  0  0  0  0  0
  -18.7350   40.2810  -29.9370 C   0  0  0  0  0  0  0  0  0  0  0  0
  -19.7650   40.2790  -30.9070 C   0  0  0  0  0  0  0  0  0  0  0  0
  -20.1830   39.1100  -31.5660 C   0  0  0  0  0  0  0  0  0  0  0  0
  -19.5240   37.9130  -31.2670 C   0  0  0  0  0  0  0  0  0  0  0  0
  2  1  1  0
  3  2  1  0
  4  2  1  0
  5  4  1  0
  6  5  1  0
  7  6  1  0
  8  7  1  0
  9  8  1  0
 10  9  1  0
 11 10  1  0
 12 11  1  0
 12  7  1  0
 13 12  1  0
 13  4  1  0
 14 13  1  0
 15 14  1  0
 15  1  1  0
 16 15  1  0
 17 16  1  0
 18 17  1  0
 19 18  1  0
 20 19  1  0
 21 16  1  0
 21 20  1  0
M  END
$$$$
