
     RDKit          3D

 47 49  0  0  0  0  0  0  0  0999 V2000
    2.5570  -14.0750   -1.1140 C   0  0  0  0  0  0  0  0  0  0  0  0
    4.4960  -10.7870   -0.2490 C   0  0  0  0  0  0  0  0  0  0  0  0
    2.6340  -12.7070    0.9730 C   0  0  0  0  0  0  0  0  0  0  0  0
    1.6450  -15.0490   -0.5160 C   0  0  0  0  0  0  0  0  0  0  0  0
    0.9550  -16.3220   -0.9520 C   0  0  0  0  0  0  0  0  0  0  0  0
    0.1970  -16.7920    0.1410 C   0  0  0  0  0  0  0  0  0  0  0  0
    2.4770  -17.2850   -5.4750 C   0  0  2  0  0  0  0  0  0  0  0  0
    8.1500  -13.5350   -6.9000 C   0  0  2  0  0  0  0  0  0  0  0  0
    8.1080  -14.8180   -7.6510 C   0  0  0  0  0  0  0  0  0  0  0  0
    7.0640  -15.6670   -7.4480 C   0  0  0  0  0  0  0  0  0  0  0  0
    5.9020  -15.4100   -6.4610 C   0  0  2  0  0  0  0  0  0  0  0  0
    4.6360  -16.2640   -6.6380 C   0  0  2  0  0  0  0  0  0  0  0  0
    3.6600  -16.3080   -5.4530 C   0  0  0  0  0  0  0  0  0  0  0  0
    3.8710  -15.5080   -4.3610 C   0  0  0  0  0  0  0  0  0  0  0  0
    2.9450  -15.4740   -3.1190 C   0  0  2  0  0  0  0  0  0  0  0  0
    3.0440  -12.9120   -0.3830 C   0  0  0  0  0  0  0  0  0  0  0  0
    3.9860  -11.8810   -0.9780 C   0  0  0  0  0  0  0  0  0  0  0  0
    4.0620  -10.6280    1.1340 C   0  0  0  0  0  0  0  0  0  0  0  0
    1.7270  -13.6800    1.5850 C   0  0  0  0  0  0  0  0  0  0  0  0
    1.2510  -14.8320    0.8250 C   0  0  0  0  0  0  0  0  0  0  0  0
    9.2060  -15.1380   -8.6130 C   0  0  2  0  0  0  0  0  0  0  0  0
    2.9750  -14.2150   -2.4330 O   0  0  0  0  0  0  0  0  0  0  0  0
    4.4710   -9.7240    1.8860 O   0  0  0  0  0  0  0  0  0  0  0  0
    3.1280  -11.5530    1.6820 O   0  0  0  0  0  0  0  0  0  0  0  0
    0.3940  -15.8810    1.1830 O   0  0  0  0  0  0  0  0  0  0  0  0
    5.0920  -10.1660   -0.6020 H   0  0  0  0  0  0  0  0  0  0  0  0
    0.9920  -16.7540   -1.7740 H   0  0  0  0  0  0  0  0  0  0  0  0
   -0.3440  -17.5440    0.2210 H   0  0  0  0  0  0  0  0  0  0  0  0
    2.6010  -18.1080   -5.9730 H   0  0  0  0  0  0  0  0  0  0  0  0
    1.6470  -16.9560   -5.8550 H   0  0  0  0  0  0  0  0  0  0  0  0
    2.1750  -17.6230   -4.6180 H   0  0  0  0  0  0  0  0  0  0  0  0
    8.8160  -12.9030   -7.2130 H   0  0  0  0  0  0  0  0  0  0  0  0
    8.3450  -13.6250   -5.9540 H   0  0  0  0  0  0  0  0  0  0  0  0
    7.3240  -13.0270   -6.9170 H   0  0  0  0  0  0  0  0  0  0  0  0
    7.0340  -16.4630   -7.9290 H   0  0  0  0  0  0  0  0  0  0  0  0
    5.6060  -14.4870   -6.4810 H   0  0  0  0  0  0  0  0  0  0  0  0
    6.1760  -15.5290   -5.5380 H   0  0  0  0  0  0  0  0  0  0  0  0
    4.9260  -17.1560   -6.8860 H   0  0  0  0  0  0  0  0  0  0  0  0
    4.1940  -15.9560   -7.4450 H   0  0  0  0  0  0  0  0  0  0  0  0
    4.6090  -14.9430   -4.3440 H   0  0  0  0  0  0  0  0  0  0  0  0
    3.1760  -16.1570   -2.4700 H   0  0  0  0  0  0  0  0  0  0  0  0
    2.0190  -15.6520   -3.3470 H   0  0  0  0  0  0  0  0  0  0  0  0
    4.2440  -11.9680   -1.8670 H   0  0  0  0  0  0  0  0  0  0  0  0
    1.4350  -13.5900    2.4640 H   0  0  0  0  0  0  0  0  0  0  0  0
   10.1050  -15.0180   -8.2690 H   0  0  0  0  0  0  0  0  0  0  0  0
    9.2100  -14.6110   -9.4280 H   0  0  0  0  0  0  0  0  0  0  0  0
    9.2150  -16.0510   -8.9410 H   0  0  0  0  0  0  0  0  0  0  0  0
  4  1  1  0
  5  4  1  0
  6  5  1  0
  9  8  1  0
 10  9  1  0
 11 10  1  0
 12 11  1  0
 13  7  1  0
 13 12  1  0
 14 13  1  0
 15 14  1  0
 16  3  1  0
 16  1  1  0
 17 16  1  0
 17  2  1  0
 18  2  1  0
 19  3  1  0
 20 19  1  0
 20  4  1  0
 21  9  1  0
 22 15  1  0
 22  1  1  0
 23 18  1  0
 24  3  1  0
 24 18  1  0
 25  6  1  0
 25 20  1  0
 26  2  1  0
 27  5  1  0
 28  6  1  0
  7 29  1  6
 30  7  1  0
 31  7  1  0
  8 32  1  6
 33  8  1  0
 34  8  1  0
 35 10  1  0
 11 36  1  1
 37 11  1  0
 12 38  1  6
 39 12  1  0
 40 14  1  0
 15 41  1  1
 42 15  1  0
 43 17  1  0
 44 19  1  0
 21 45  1  1
 46 21  1  0
 47 21  1  0
M  END
$$$$
