
     RDKit          3D

 21 24  0  0  0  0  0  0  0  0999 V2000
    3.9650   16.7450   21.6010 C   0  0  0  0  0  0  0  0  0  0  0  0
    2.9920   15.7620   21.4290 C   0  0  1  0  0  0  0  0  0  0  0  0
    3.0940   14.7420   22.1110 O   0  0  0  0  0  0  0  0  0  0  0  0
    1.8730   16.0040   20.6260 C   0  0  2  0  0  0  0  0  0  0  0  0
    0.9080   15.0350   20.3670 C   0  0  0  0  0  0  0  0  0  0  0  0
   -0.1310   15.3030   19.4760 C   0  0  0  0  0  0  0  0  0  0  0  0
   -0.2160   16.5300   18.8240 C   0  0  0  0  0  0  0  0  0  0  0  0
   -1.2200   16.7780   17.8880 C   0  0  0  0  0  0  0  0  0  0  0  0
   -1.2650   18.0070   17.2320 C   0  0  0  0  0  0  0  0  0  0  0  0
   -0.3200   18.9940   17.5100 C   0  0  0  0  0  0  0  0  0  0  0  0
    0.6870   18.7450   18.4420 C   0  0  0  0  0  0  0  0  0  0  0  0
    0.7360   17.5120   19.0910 C   0  0  0  0  0  0  0  0  0  0  0  0
    1.7600   17.2370   19.9930 C   0  0  1  0  0  0  0  0  0  0  0  0
    2.6110   18.2330   20.3460 O   0  0  0  0  0  0  0  0  0  0  0  0
    3.7860   17.9790   20.9830 C   0  0  1  0  0  0  0  0  0  0  0  0
    4.6840   19.0340   21.0900 C   0  0  2  0  0  0  0  0  0  0  0  0
    5.8140   18.9580   21.9010 C   0  0  0  0  0  0  0  0  0  0  0  0
    6.6130   20.0910   22.0220 C   0  0  0  0  0  0  0  0  0  0  0  0
    6.3080   21.2740   21.3560 C   0  0  0  0  0  0  0  0  0  0  0  0
    5.1790   21.3400   20.5440 C   0  0  0  0  0  0  0  0  0  0  0  0
    4.3750   20.2120   20.4190 C   0  0  0  0  0  0  0  0  0  0  0  0
  2  1  1  0
  2  3  1  1
  4  2  1  0
  4  5  1  6
  6  5  1  0
  7  6  1  0
  8  7  1  0
  9  8  1  0
 10  9  1  0
 11 10  1  0
 12 11  1  0
 12  7  1  0
 13  4  1  0
 13 12  1  0
 13 14  1  1
 15 14  1  0
 15  1  1  1
 16 15  1  0
 16 17  1  1
 18 17  1  0
 19 18  1  0
 20 19  1  0
 21 20  1  0
 21 16  1  0
M  END
$$$$
