
     RDKit          3D

 54 57  0  0  0  0  0  0  0  0999 V2000
   97.0060   61.1400  271.3180 C   0  0  0  0  0  0  0  0  0  0  0  0
   96.9180   61.2610  272.7140 O   0  0  0  0  0  0  0  0  0  0  0  0
   96.3300   62.4490  273.2010 C   0  0  1  0  0  0  0  0  0  0  0  0
   94.7860   62.4890  272.9900 C   0  0  0  0  0  0  0  0  0  0  0  0
   94.0180   63.2700  273.8180 C   0  0  0  0  0  0  0  0  0  0  0  0
   92.5930   63.3510  273.7340 O   0  0  0  0  0  0  0  0  0  0  0  0
   92.0300   64.1270  272.6430 C   0  0  1  0  0  0  0  0  0  0  0  0
   90.5740   63.7600  272.4830 C   0  0  0  0  0  0  0  0  0  0  0  0
   92.0990   65.5740  272.9770 O   0  0  0  0  0  0  0  0  0  0  0  0
   93.3920   66.0300  272.2570 C   0  0  0  0  0  0  0  0  0  0  0  0
   94.1750   67.1660  272.4630 C   0  0  0  0  0  0  0  0  0  0  0  0
   93.7330   68.1240  273.5310 C   0  0  0  0  0  0  0  0  0  0  0  0
   95.3150   67.3930  271.7120 C   0  0  0  0  0  0  0  0  0  0  0  0
   96.1440   68.5300  271.8730 O   0  0  0  0  0  0  0  0  0  0  0  0
   95.6530   66.4110  270.7220 C   0  0  0  0  0  0  0  0  0  0  0  0
   96.8090   66.7100  269.9960 C   0  0  0  0  0  0  0  0  0  0  0  0
   97.5540   67.8890  270.2490 O   0  0  0  0  0  0  0  0  0  0  0  0
   97.2350   65.8160  269.0180 C   0  0  0  0  0  0  0  0  0  0  0  0
   96.5020   64.6260  268.7520 C   0  0  0  0  0  0  0  0  0  0  0  0
   95.3260   64.3150  269.4740 C   0  0  0  0  0  0  0  0  0  0  0  0
   94.5740   63.1240  269.1780 O   0  0  0  0  0  0  0  0  0  0  0  0
   93.5150   63.2750  268.1780 C   0  0  0  0  0  0  0  0  0  0  0  0
   92.5930   63.9960  268.3470 O   0  0  0  0  0  0  0  0  0  0  0  0
   93.4650   62.5290  266.8180 C   0  0  0  0  0  0  0  0  0  0  0  0
   92.7810   63.3500  265.8920 O   0  0  0  0  0  0  0  0  0  0  0  0
   94.9000   65.2490  270.5000 C   0  0  0  0  0  0  0  0  0  0  0  0
   93.7160   65.0490  271.2690 C   0  0  1  0  0  0  0  0  0  0  0  0
   92.7200   64.0290  271.4100 C   0  0  1  0  0  0  0  0  0  0  0  0
   92.4970   63.1300  270.6760 O   0  0  0  0  0  0  0  0  0  0  0  0
   98.4640   66.2380  268.3420 N   0  0  0  0  0  0  0  0  0  0  0  0
   99.8060   65.7500  268.7050 C   0  0  2  0  0  0  0  0  0  0  0  0
  100.7190   66.1820  268.0910 O   0  0  0  0  0  0  0  0  0  0  0  0
  100.0940   64.6540  269.7800 C   0  0  0  0  0  0  0  0  0  0  0  0
  101.5010   64.0790  269.7280 C   0  0  0  0  0  0  0  0  0  0  0  0
   99.2100   64.2090  270.7070 C   0  0  0  0  0  0  0  0  0  0  0  0
   99.6370   63.0570  271.6980 C   0  0  0  0  0  0  0  0  0  0  0  0
  100.8930   62.9290  272.2170 C   0  0  0  0  0  0  0  0  0  0  0  0
  101.3970   61.7940  273.1320 C   0  0  2  0  0  0  0  0  0  0  0  0
  100.9380   60.4380  272.6140 C   0  0  0  0  0  0  0  0  0  0  0  0
  101.0320   62.0460  274.6160 C   0  0  2  0  0  0  0  0  0  0  0  0
  102.0470   62.8160  275.1260 O   0  0  0  0  0  0  0  0  0  0  0  0
  100.9110   60.7720  275.4570 C   0  0  1  0  0  0  0  0  0  0  0  0
  100.9600   61.1340  276.9330 C   0  0  0  0  0  0  0  0  0  0  0  0
   99.5670   60.0820  275.1130 C   0  0  1  0  0  0  0  0  0  0  0  0
   99.5270   58.7850  275.6420 O   0  0  0  0  0  0  0  0  0  0  0  0
   98.3000   60.8730  275.5400 C   0  0  1  0  0  0  0  0  0  0  0  0
   98.0900   60.8700  277.0660 C   0  0  0  0  0  0  0  0  0  0  0  0
   98.1400   62.3030  274.9090 C   0  0  2  0  0  0  0  0  0  0  0  0
   98.7600   63.3920  275.5870 O   0  0  0  0  0  0  0  0  0  0  0  0
   98.4010   64.7470  275.2610 C   0  0  0  0  0  0  0  0  0  0  0  0
   97.6210   65.5700  276.2960 C   0  0  0  0  0  0  0  0  0  0  0  0
   98.7170   65.2530  274.2200 O   0  0  0  0  0  0  0  0  0  0  0  0
   96.6400   62.6110  274.7030 C   0  0  2  0  0  0  0  0  0  0  0  0
   95.6980   61.7950  275.6110 C   0  0  0  0  0  0  0  0  0  0  0  0
  2  1  1  0
  3  2  1  1
  4  3  1  0
  5  4  1  0
  6  5  1  0
  7  6  1  0
  7  8  1  6
  9  7  1  0
 10  9  1  0
 11 10  1  0
 12 11  1  0
 13 11  1  0
 14 13  1  0
 15 13  1  0
 16 15  1  0
 17 16  1  0
 18 16  1  0
 19 18  1  0
 20 19  1  0
 21 20  1  0
 22 21  1  0
 23 22  1  0
 24 22  1  0
 25 24  1  0
 26 20  1  0
 26 15  1  0
 27 26  1  0
 27 10  1  1
 28  7  1  0
 28 27  1  0
 28 29  1  1
 30 18  1  0
 31 30  1  0
 31 32  1  6
 33 31  1  0
 34 33  1  0
 35 33  1  0
 36 35  1  0
 37 36  1  0
 38 37  1  0
 38 39  1  6
 40 38  1  0
 40 41  1  1
 42 40  1  0
 42 43  1  1
 44 42  1  0
 44 45  1  1
 46 44  1  0
 46 47  1  1
 48 46  1  0
 48 49  1  1
 50 49  1  0
 51 50  1  0
 52 50  1  0
 53  3  1  0
 53 48  1  0
 53 54  1  1
M  END
$$$$
