
     RDKit          3D

 21 21  0  0  0  0  0  0  0  0999 V2000
    9.2460  -26.5560  -19.4430 C   0  0  0  0  0  0  0  0  0  0  0  0
   10.8990  -27.5140  -16.3640 C   0  0  2  0  0  0  0  0  0  0  0  0
    9.6590  -27.3910  -18.4310 C   0  0  0  0  0  0  0  0  0  0  0  0
    9.6020  -28.7890  -18.6230 C   0  0  0  0  0  0  0  0  0  0  0  0
    9.1110  -29.2950  -19.8330 C   0  0  0  0  0  0  0  0  0  0  0  0
    8.6750  -28.4460  -20.8450 C   0  0  0  0  0  0  0  0  0  0  0  0
    8.7820  -27.0490  -20.6360 C   0  0  0  0  0  0  0  0  0  0  0  0
    8.3740  -25.9890  -21.6430 C   0  0  1  0  0  0  0  0  0  0  0  0
   10.1260  -26.7630  -17.2910 O   0  0  0  0  0  0  0  0  0  0  0  0
    7.9120  -26.6230  -22.8170 O   0  0  0  0  0  0  0  0  0  0  0  0
    9.3480  -25.1750  -19.2240 O   0  0  0  0  0  0  0  0  0  0  0  0
   11.4340  -28.1660  -16.8420 H   0  0  0  0  0  0  0  0  0  0  0  0
   10.3070  -27.9720  -15.7460 H   0  0  0  0  0  0  0  0  0  0  0  0
   11.4820  -26.9160  -15.8700 H   0  0  0  0  0  0  0  0  0  0  0  0
    9.8880  -29.3670  -17.9530 H   0  0  0  0  0  0  0  0  0  0  0  0
    9.0750  -30.2160  -19.9610 H   0  0  0  0  0  0  0  0  0  0  0  0
    8.3240  -28.7860  -21.6360 H   0  0  0  0  0  0  0  0  0  0  0  0
    7.6650  -25.4430  -21.2690 H   0  0  0  0  0  0  0  0  0  0  0  0
    9.1390  -25.4320  -21.8560 H   0  0  0  0  0  0  0  0  0  0  0  0
    7.7470  -26.0370  -23.4100 H   0  0  0  0  0  0  0  0  0  0  0  0
    8.5970  -24.8070  -19.3760 H   0  0  0  0  0  0  0  0  0  0  0  0
  3  1  1  0
  4  3  1  0
  5  4  1  0
  6  5  1  0
  7  6  1  0
  7  1  1  0
  8  7  1  0
  9  3  1  0
  9  2  1  0
 10  8  1  0
 11  1  1  0
  2 12  1  6
 13  2  1  0
 14  2  1  0
 15  4  1  0
 16  5  1  0
 17  6  1  0
  8 18  1  1
 19  8  1  0
 20 10  1  0
 21 11  1  0
M  END
$$$$
