
     RDKit          3D

 31 34  0  0  0  0  0  0  0  0999 V2000
   19.7280   10.0960   16.6840 C   0  0  0  0  0  0  0  0  0  0  0  0
   20.3180    8.7700   16.2400 C   0  0  0  0  0  0  0  0  0  0  0  0
   21.3960    8.8810   15.1640 C   0  0  0  0  0  0  0  0  0  0  0  0
   22.1500   10.2050   15.2310 C   0  0  1  0  0  0  0  0  0  0  0  0
   23.3950   10.2880   14.2970 C   0  0  2  0  0  0  0  0  0  0  0  0
   23.2210    9.7420   12.8900 C   0  0  0  0  0  0  0  0  0  0  0  0
   24.5210    9.5220   14.9720 C   0  0  0  0  0  0  0  0  0  0  0  0
   23.9300   11.7020   14.1140 C   0  0  1  0  0  0  0  0  0  0  0  0
   24.9220   11.7080   13.0740 O   0  0  0  0  0  0  0  0  0  0  0  0
   22.7960   12.6660   13.7960 C   0  0  0  0  0  0  0  0  0  0  0  0
   21.8480   12.6630   14.9950 C   0  0  0  0  0  0  0  0  0  0  0  0
   21.1220   11.3210   15.0370 C   0  0  1  0  0  0  0  0  0  0  0  0
   20.2790   11.1140   13.7880 C   0  0  0  0  0  0  0  0  0  0  0  0
   20.1020   11.2770   16.1550 C   0  0  1  0  0  0  0  0  0  0  0  0
   19.4920   12.6100   16.5980 C   0  0  0  0  0  0  0  0  0  0  0  0
   18.4210   12.5320   17.7020 C   0  0  0  0  0  0  0  0  0  0  0  0
   17.6770   11.2030   17.6950 C   0  0  1  0  0  0  0  0  0  0  0  0
   16.8630   11.0530   16.4170 C   0  0  0  0  0  0  0  0  0  0  0  0
   18.7020   10.0900   17.7940 C   0  0  2  0  0  0  0  0  0  0  0  0
   19.4580   10.1860   19.0890 C   0  0  0  0  0  0  0  0  0  0  0  0
   17.8220    8.8810   17.9870 C   0  0  0  0  0  0  0  0  0  0  0  0
   16.7880    9.3750   19.0050 C   0  0  0  0  0  0  0  0  0  0  0  0
   16.7480   10.8980   18.8860 C   0  0  2  0  0  0  0  0  0  0  0  0
   15.3150   11.4410   18.7510 C   0  0  2  0  0  0  0  0  0  0  0  0
   15.1610   12.7870   19.4470 C   0  0  0  0  0  0  0  0  0  0  0  0
   14.2210   10.4930   19.2570 C   0  0  0  0  0  0  0  0  0  0  0  0
   13.4370   11.0550   20.4500 C   0  0  0  0  0  0  0  0  0  0  0  0
   11.9470   11.1280   20.1730 C   0  0  0  0  0  0  0  0  0  0  0  0
   11.2830   12.2800   20.3730 C   0  0  0  0  0  0  0  0  0  0  0  0
    9.8070   12.3800   20.1190 C   0  0  0  0  0  0  0  0  0  0  0  0
   12.0250   13.4920   20.8470 C   0  0  0  0  0  0  0  0  0  0  0  0
  2  1  1  0
  3  2  1  0
  4  3  1  6
  5  4  1  0
  5  6  1  6
  7  5  1  0
  8  5  1  0
  8  9  1  6
 10  8  1  0
 11 10  1  0
 12  4  1  0
 12 11  1  0
 12 13  1  6
 14  1  1  0
 14 12  1  0
 14 15  1  6
 16 15  1  0
 17 16  1  0
 17 18  1  6
 19  1  1  0
 19 17  1  0
 19 20  1  1
 21 19  1  0
 22 21  1  0
 23 22  1  6
 23 17  1  0
 24 23  1  0
 24 25  1  1
 26 24  1  0
 27 26  1  0
 28 27  1  0
 29 28  1  0
 30 29  1  0
 31 29  1  0
M  END
$$$$
