
     RDKit          3D

 25 26  0  0  0  0  0  0  0  0999 V2000
   45.6600   15.6390  -27.9550 C   0  0  0  0  0  0  0  0  0  0  0  0
   46.1320   14.2850  -27.4180 C   0  0  0  0  0  0  0  0  0  0  0  0
   47.1810   14.4720  -26.4500 O   0  0  0  0  0  0  0  0  0  0  0  0
   47.6950   13.3810  -25.8080 C   0  0  0  0  0  0  0  0  0  0  0  0
   47.2490   12.2510  -26.0160 O   0  0  0  0  0  0  0  0  0  0  0  0
   48.8130   13.6000  -24.7710 C   0  0  0  0  0  0  0  0  0  0  0  0
   49.8470   12.6860  -24.5130 C   0  0  1  0  0  0  0  0  0  0  0  0
   50.3100   11.6020  -25.4950 C   0  0  0  0  0  0  0  0  0  0  0  0
   50.5450   12.7760  -23.3620 N   0  0  0  0  0  0  0  0  0  0  0  0
   50.3630   13.6750  -22.3730 C   0  0  1  0  0  0  0  0  0  0  0  0
   51.3950   13.6640  -21.2390 C   0  0  0  0  0  0  0  0  0  0  0  0
   49.3370   14.6250  -22.4860 C   0  0  2  0  0  0  0  0  0  0  0  0
   48.5910   15.2270  -21.2800 C   0  0  0  0  0  0  0  0  0  0  0  0
   48.6270   14.6650  -20.1840 O   0  0  0  0  0  0  0  0  0  0  0  0
   47.8580   16.3650  -21.4570 O   0  0  0  0  0  0  0  0  0  0  0  0
   47.1710   16.9170  -20.3250 C   0  0  0  0  0  0  0  0  0  0  0  0
   48.8170   14.8910  -23.9180 C   0  0  1  0  0  0  0  0  0  0  0  0
   49.2860   16.1960  -24.6080 C   0  0  0  0  0  0  0  0  0  0  0  0
   50.6260   16.2990  -25.0130 C   0  0  0  0  0  0  0  0  0  0  0  0
   51.1280   17.4250  -25.6650 C   0  0  0  0  0  0  0  0  0  0  0  0
   50.2590   18.4870  -25.9190 C   0  0  0  0  0  0  0  0  0  0  0  0
   48.9220   18.4210  -25.5210 C   0  0  2  0  0  0  0  0  0  0  0  0
   47.9780   19.8410  -25.8180 Cl  0  0  0  0  0  0  0  0  0  0  0  0
   48.4260   17.2800  -24.8710 C   0  0  0  0  0  0  0  0  0  0  0  0
   46.7480   17.2510  -24.4330 Cl  0  0  0  0  0  0  0  0  0  0  0  0
  2  1  1  0
  3  2  1  0
  4  3  1  0
  5  4  1  0
  6  4  1  0
  7  6  1  0
  7  8  1  6
  9  7  1  0
 10  9  1  0
 10 11  1  6
 12 10  1  0
 12 13  1  1
 14 13  1  0
 15 13  1  0
 16 15  1  0
 17  6  1  0
 17 12  1  0
 17 18  1  6
 19 18  1  0
 20 19  1  0
 21 20  1  0
 22 21  1  0
 22 23  1  1
 24 22  1  0
 24 18  1  0
 25 24  1  0
M  END
$$$$
