
     RDKit          3D

 24 27  0  0  0  0  0  0  0  0999 V2000
    4.2560   25.8640   -7.8170 O   0  0  0  0  0  0  0  0  0  0  0  0
    4.0670   27.2260   -7.4590 C   0  0  2  0  0  0  0  0  0  0  0  0
    4.6420   27.4480   -6.0510 C   0  0  2  0  0  0  0  0  0  0  0  0
    6.0610   27.8760   -6.0720 N   0  0  0  0  0  0  0  0  0  0  0  0
    6.4300   28.3940   -4.7470 C   0  0  0  0  0  0  0  0  0  0  0  0
    6.0840   27.3990   -3.6480 C   0  0  0  0  0  0  0  0  0  0  0  0
    6.9320   26.7300   -6.3600 C   0  0  0  0  0  0  0  0  0  0  0  0
    6.8800   25.6710   -5.2390 C   0  0  2  0  0  0  0  0  0  0  0  0
    6.8080   24.2790   -5.7740 C   0  0  0  0  0  0  0  0  0  0  0  0
    7.7490   23.3670   -5.5930 C   0  0  0  0  0  0  0  0  0  0  0  0
    5.7270   26.0660   -4.3010 C   0  0  2  0  0  0  0  0  0  0  0  0
    4.4420   26.2600   -5.1050 C   0  0  0  0  0  0  0  0  0  0  0  0
    2.5870   27.5800   -7.4480 C   0  0  0  0  0  0  0  0  0  0  0  0
    1.6480   26.6230   -7.1700 C   0  0  0  0  0  0  0  0  0  0  0  0
    0.3030   26.9550   -7.1750 C   0  0  0  0  0  0  0  0  0  0  0  0
   -0.1710   28.1590   -7.4470 N   0  0  0  0  0  0  0  0  0  0  0  0
    0.7460   29.1400   -7.7240 C   0  0  0  0  0  0  0  0  0  0  0  0
    2.1450   28.9050   -7.7300 C   0  0  0  0  0  0  0  0  0  0  0  0
    3.0210   29.9940   -7.9850 C   0  0  0  0  0  0  0  0  0  0  0  0
    0.2740   30.4360   -8.0280 C   0  0  0  0  0  0  0  0  0  0  0  0
    1.1420   31.4420   -8.3350 C   0  0  0  0  0  0  0  0  0  0  0  0
    2.5140   31.2340   -8.2570 C   0  0  0  0  0  0  0  0  0  0  0  0
    3.2840   32.3520   -8.4530 O   0  0  0  0  0  0  0  0  0  0  0  0
    4.7010   32.2200   -8.3300 C   0  0  0  0  0  0  0  0  0  0  0  0
  2  1  1  1
  3  2  1  0
  4  3  1  0
  5  4  1  0
  6  5  1  0
  7  4  1  0
  8  7  1  0
  8  9  1  6
 10  9  1  0
 11  8  1  0
 11  6  1  0
  3 12  1  1
 11 12  1  6
 13  2  1  0
 14 13  1  0
 15 14  1  0
 16 15  1  0
 17 16  1  0
 18 17  1  0
 18 13  1  0
 19 18  1  0
 20 17  1  0
 21 20  1  0
 22 21  1  0
 22 19  1  0
 23 22  1  0
 24 23  1  0
M  END
$$$$
