
     RDKit          3D

 24 27  0  0  0  0  0  0  0  0999 V2000
    3.4630   25.9800   -4.2370 O   0  0  0  0  0  0  0  0  0  0  0  0
    4.5650   25.1480   -4.5800 C   0  0  1  0  0  0  0  0  0  0  0  0
    5.7140   26.0020   -5.1550 C   0  0  1  0  0  0  0  0  0  0  0  0
    5.4280   26.5290   -6.5060 N   0  0  0  0  0  0  0  0  0  0  0  0
    4.6300   27.7620   -6.4230 C   0  0  0  0  0  0  0  0  0  0  0  0
    5.4310   28.8960   -5.7840 C   0  0  0  0  0  0  0  0  0  0  0  0
    6.7180   26.8660   -7.1300 C   0  0  0  0  0  0  0  0  0  0  0  0
    7.5870   27.7680   -6.2270 C   0  0  2  0  0  0  0  0  0  0  0  0
    8.7960   27.0550   -5.7020 C   0  0  0  0  0  0  0  0  0  0  0  0
    9.0890   25.7810   -5.8530 C   0  0  0  0  0  0  0  0  0  0  0  0
    6.6610   28.2890   -5.1180 C   0  0  2  0  0  0  0  0  0  0  0  0
    6.2060   27.1240   -4.2340 C   0  0  0  0  0  0  0  0  0  0  0  0
    5.0580   24.3570   -3.3780 C   0  0  0  0  0  0  0  0  0  0  0  0
    4.6380   24.6840   -2.1140 C   0  0  0  0  0  0  0  0  0  0  0  0
    5.1370   23.9940   -1.0210 C   0  0  0  0  0  0  0  0  0  0  0  0
    6.0240   23.0150   -1.0890 N   0  0  0  0  0  0  0  0  0  0  0  0
    6.4630   22.6570   -2.3400 C   0  0  0  0  0  0  0  0  0  0  0  0
    5.9990   23.2880   -3.5210 C   0  0  0  0  0  0  0  0  0  0  0  0
    6.4600   22.8090   -4.7720 C   0  0  0  0  0  0  0  0  0  0  0  0
    7.3910   21.5910   -2.4520 C   0  0  0  0  0  0  0  0  0  0  0  0
    7.8180   21.1620   -3.6760 C   0  0  0  0  0  0  0  0  0  0  0  0
    7.3450   21.7670   -4.8370 C   0  0  0  0  0  0  0  0  0  0  0  0
    7.7810   21.2660   -6.0360 O   0  0  0  0  0  0  0  0  0  0  0  0
    8.7090   20.1900   -6.0080 C   0  0  0  0  0  0  0  0  0  0  0  0
  2  1  1  1
  3  2  1  0
  4  3  1  0
  5  4  1  0
  6  5  1  0
  7  4  1  0
  8  7  1  0
  8  9  1  1
 10  9  1  0
 11  6  1  0
 11  8  1  0
  3 12  1  1
 11 12  1  1
 13  2  1  0
 14 13  1  0
 15 14  1  0
 16 15  1  0
 17 16  1  0
 18 13  1  0
 18 17  1  0
 19 18  1  0
 20 17  1  0
 21 20  1  0
 22 21  1  0
 22 19  1  0
 23 22  1  0
 24 23  1  0
M  END
$$$$
