
     RDKit          3D

 24 27  0  0  0  0  0  0  0  0999 V2000
  -22.5170   28.6950  -67.0940 C   0  0  0  0  0  0  0  0  0  0  0  0
  -21.5650   28.3690  -66.1410 C   0  0  0  0  0  0  0  0  0  0  0  0
  -21.8840   28.1790  -64.7890 C   0  0  0  0  0  0  0  0  0  0  0  0
  -23.2490   28.3190  -64.4350 C   0  0  0  0  0  0  0  0  0  0  0  0
  -24.2400   28.6520  -65.3690 C   0  0  0  0  0  0  0  0  0  0  0  0
  -23.8470   28.8420  -66.6950 C   0  0  0  0  0  0  0  0  0  0  0  0
  -24.7560   29.1900  -67.5930 F   0  0  0  0  0  0  0  0  0  0  0  0
  -23.6890   28.1360  -63.1900 F   0  0  0  0  0  0  0  0  0  0  0  0
  -20.7790   27.8880  -63.7790 C   0  0  2  0  0  0  0  0  0  0  0  0
  -21.0240   26.5420  -63.0910 C   0  0  0  0  0  0  0  0  0  0  0  0
  -20.1120   26.3220  -62.0080 O   0  0  0  0  0  0  0  0  0  0  0  0
  -20.2060   27.3270  -60.9900 C   0  0  2  0  0  0  0  0  0  0  0  0
  -19.8100   28.6800  -61.5580 C   0  0  0  0  0  0  0  0  0  0  0  0
  -20.7520   29.0170  -62.7150 C   0  0  1  0  0  0  0  0  0  0  0  0
  -20.4040   30.3710  -63.3650 C   0  0  0  0  0  0  0  0  0  0  0  0
  -18.8120   30.4100  -64.2150 S   0  0  0  0  0  0  0  0  0  0  0  0
  -18.6650   28.6910  -64.7020 C   0  0  0  0  0  0  0  0  0  0  0  0
  -19.4930   27.7090  -64.4900 N   0  0  0  0  0  0  0  0  0  0  0  0
  -17.4950   28.4470  -65.3840 N   0  0  0  0  0  0  0  0  0  0  0  0
  -19.2600   26.9010  -59.9230 C   0  0  0  0  0  0  0  0  0  0  0  0
  -18.5780   25.6930  -59.8440 C   0  0  0  0  0  0  0  0  0  0  0  0
  -17.8260   25.7570  -58.6750 N   0  0  0  0  0  0  0  0  0  0  0  0
  -17.9910   26.9320  -58.0120 N   0  0  0  0  0  0  0  0  0  0  0  0
  -18.8720   27.6510  -58.7630 C   0  0  0  0  0  0  0  0  0  0  0  0
  2  1  1  0
  3  2  1  0
  4  3  1  0
  5  4  1  0
  6  1  1  0
  6  5  1  0
  7  6  1  0
  8  4  1  0
  9  3  1  6
 10  9  1  0
 11 10  1  0
 12 11  1  0
 13 12  1  0
 14 13  1  1
 14  9  1  0
 15 14  1  0
 16 15  1  0
 17 16  1  0
 18 17  1  0
 18  9  1  0
 19 17  1  0
 12 20  1  1
 21 20  1  0
 22 21  1  0
 23 22  1  0
 24 23  1  0
 24 20  1  0
M  END
$$$$
