
     RDKit          3D

 28 30  0  0  0  0  0  0  0  0999 V2000
   65.3340  152.2090   76.7240 N   0  0  0  0  0  0  0  0  0  0  0  0
   64.7660  155.2850   77.8210 N   0  0  0  0  0  0  0  0  0  0  0  0
   63.9850  150.2860   77.4350 C   0  0  0  0  0  0  0  0  0  0  0  0
   65.7220  154.1360   74.8290 C   0  0  2  0  0  0  0  0  0  0  0  0
   64.5760  154.0600   74.0570 C   0  0  0  0  0  0  0  0  0  0  0  0
   64.1560  155.1700   73.3550 C   0  0  0  0  0  0  0  0  0  0  0  0
   64.8820  156.3450   73.4260 C   0  0  1  0  0  0  0  0  0  0  0  0
   66.4190  155.3260   74.9500 C   0  0  0  0  0  0  0  0  0  0  0  0
   63.0180  160.6330   72.5530 C   0  0  0  0  0  0  0  0  0  0  0  0
   63.7650  158.7360   74.3350 C   0  0  0  0  0  0  0  0  0  0  0  0
   65.0400  152.8130   80.5640 C   0  0  0  0  0  0  0  0  0  0  0  0
   65.1870  152.0590   79.2440 C   0  0  2  0  0  0  0  0  0  0  0  0
   65.2680  152.9630   78.0000 C   0  0  2  0  0  0  0  0  0  0  0  0
   64.1560  151.3780   76.4060 C   0  0  0  0  0  0  0  0  0  0  0  0
   63.7200  150.9480   79.0990 S   0  0  0  0  0  0  0  0  0  0  0  0
   66.3690  152.6760   75.5570 S   0  0  2  0  0  0  0  0  0  0  0  0
   65.9950  156.4350   74.2460 C   0  0  0  0  0  0  0  0  0  0  0  0
   64.5280  157.3440   72.5300 O   0  0  0  0  0  0  0  0  0  0  0  0
   63.9570  158.5130   72.9870 C   0  0  0  0  0  0  0  0  0  0  0  0
   63.5730  159.4670   72.0670 C   0  0  0  0  0  0  0  0  0  0  0  0
   62.8320  160.8840   73.8510 N   0  0  0  0  0  0  0  0  0  0  0  0
   63.2050  159.9390   74.7120 C   0  0  0  0  0  0  0  0  0  0  0  0
   66.3490  151.6480   74.5650 O   0  0  0  0  0  0  0  0  0  0  0  0
   67.5960  153.0170   76.2040 O   0  0  0  0  0  0  0  0  0  0  0  0
   64.2260  154.0790   77.9060 C   0  0  0  0  0  0  0  0  0  0  0  0
   63.9440  156.3960   77.6640 O   0  0  0  0  0  0  0  0  0  0  0  0
   63.0110  153.8820   77.8930 O   0  0  0  0  0  0  0  0  0  0  0  0
   66.4470  151.1910   79.3000 C   0  0  0  0  0  0  0  0  0  0  0  0
  4  5  1  6
  6  5  1  0
  7  6  1  0
  8  4  1  0
 12 11  1  1
 13 12  1  0
 13  1  1  0
 14  3  1  0
 14  1  1  0
 15 12  1  0
 15  3  1  0
 16  1  1  0
 16  4  1  0
 17  7  1  0
 17  8  1  0
  7 18  1  6
 19 18  1  0
 19 10  1  0
 20 19  1  0
 20  9  1  0
 21  9  1  0
 22 21  1  0
 22 10  1  0
 16 23  1  6
 24 16  1  0
 13 25  1  6
 25  2  1  0
 26  2  1  0
 27 25  1  0
 28 12  1  0
M  END
$$$$
