
     RDKit          3D

 16 18  0  0  0  0  0  0  0  0999 V2000
   55.8450   77.5480   60.3330 C   0  0  0  0  0  0  0  0  0  0  0  0
   52.4250   79.7000   58.2450 C   0  0  0  0  0  0  0  0  0  0  0  0
   52.4480   78.5730   58.9460 C   0  0  0  0  0  0  0  0  0  0  0  0
   57.3380   81.5670   59.3660 C   0  0  0  0  0  0  0  0  0  0  0  0
   58.6620   77.8600   60.7520 C   0  0  0  0  0  0  0  0  0  0  0  0
   57.9470   76.7350   61.2890 C   0  0  0  0  0  0  0  0  0  0  0  0
   56.6190   76.5920   61.0890 C   0  0  0  0  0  0  0  0  0  0  0  0
   54.4670   77.3960   60.1210 C   0  0  0  0  0  0  0  0  0  0  0  0
   53.7910   78.3820   59.3640 C   0  0  0  0  0  0  0  0  0  0  0  0
   54.5190   79.4900   58.8460 C   0  0  0  0  0  0  0  0  0  0  0  0
   55.8760   79.6840   59.0290 C   0  0  0  0  0  0  0  0  0  0  0  0
   56.5430   78.6710   59.7950 C   0  0  0  0  0  0  0  0  0  0  0  0
   57.9290   78.7920   60.0220 O   0  0  0  0  0  0  0  0  0  0  0  0
   53.6760   80.3100   58.1520 O   0  0  0  0  0  0  0  0  0  0  0  0
   56.5600   80.7790   58.5010 O   0  0  0  0  0  0  0  0  0  0  0  0
   59.8310   78.0590   60.8810 O   0  0  0  0  0  0  0  0  0  0  0  0
  3  2  1  0
  6  5  1  0
  7  6  1  0
  7  1  1  0
  8  1  1  0
  9  3  1  0
  9  8  1  0
 10  9  1  0
 11 10  1  0
 12 11  1  0
 12  1  1  0
 13 12  1  0
 13  5  1  0
 14  2  1  0
 14 10  1  0
 15 11  1  0
 15  4  1  0
 16  5  1  0
M  END
$$$$
