
     RDKit          3D

 26 28  0  0  0  0  0  0  0  0999 V2000
    5.5630    7.7670   18.1760 N   0  0  0  0  0  0  0  0  0  0  0  0
    5.8730    9.0220   17.4710 C   0  0  2  0  0  0  0  0  0  0  0  0
    4.8070   10.1110   17.7510 C   0  0  0  0  0  0  0  0  0  0  0  0
    4.8910   11.2020   17.1970 O   0  0  0  0  0  0  0  0  0  0  0  0
    6.0060    8.7920   15.9380 C   0  0  0  0  0  0  0  0  0  0  0  0
    4.7640    8.5250   15.3360 C   0  0  0  0  0  0  0  0  0  0  0  0
    4.1850    7.2590   15.4590 C   0  0  0  0  0  0  0  0  0  0  0  0
    4.1090    9.5190   14.6030 C   0  0  0  0  0  0  0  0  0  0  0  0
    2.9470    6.9980   14.8610 C   0  0  0  0  0  0  0  0  0  0  0  0
    2.8780    9.2620   14.0080 C   0  0  0  0  0  0  0  0  0  0  0  0
    2.3020    7.9970   14.1320 C   0  0  0  0  0  0  0  0  0  0  0  0
   -1.3340    7.0420   20.3350 C   0  0  0  0  0  0  0  0  0  0  0  0
   -1.6930    6.2890   19.2290 C   0  0  0  0  0  0  0  0  0  0  0  0
   -1.1540    6.6110   17.9880 C   0  0  0  0  0  0  0  0  0  0  0  0
   -0.3120    7.6350   17.8790 C   0  0  0  0  0  0  0  0  0  0  0  0
    0.0190    8.3680   18.9500 C   0  0  0  0  0  0  0  0  0  0  0  0
   -0.4650    8.1090   20.1640 C   0  0  0  0  0  0  0  0  0  0  0  0
    6.7810    6.9760   18.3890 C   0  0  0  0  0  0  0  0  0  0  0  0
    1.0560    9.1940   17.2190 C   0  0  0  0  0  0  0  0  0  0  0  0
    0.8540    9.3030   18.5290 C   0  0  0  0  0  0  0  0  0  0  0  0
    1.4730   10.3390   19.4590 C   0  0  0  0  0  0  0  0  0  0  0  0
    2.7940   10.8700   18.9080 C   0  0  1  0  0  0  0  0  0  0  0  0
    3.3660   11.7930   19.9730 C   0  0  0  0  0  0  0  0  0  0  0  0
    0.3330    8.1410   16.8210 N   0  0  0  0  0  0  0  0  0  0  0  0
    3.8000    9.8280   18.6080 N   0  0  0  0  0  0  0  0  0  0  0  0
    3.4350   11.0950   21.2100 O   0  0  0  0  0  0  0  0  0  0  0  0
  2  1  1  0
  3  2  1  0
  4  3  1  0
  2  5  1  6
  6  5  1  0
  7  6  1  0
  8  6  1  0
  9  7  1  0
 10  8  1  0
 11 10  1  0
 11  9  1  0
 13 12  1  0
 14 13  1  0
 15 14  1  0
 16 15  1  0
 17 16  1  0
 17 12  1  0
 18  1  1  0
 20 19  1  0
 20 16  1  0
 21 20  1  0
 22 21  1  1
 23 22  1  0
 24 19  1  0
 24 15  1  0
 25 22  1  0
 25  3  1  0
 26 23  1  0
M  END
$$$$
