
     RDKit          3D

 18 19  0  0  0  0  0  0  0  0999 V2000
    7.1650   28.8000   -3.4190 C   0  0  0  0  0  0  0  0  0  0  0  0
    7.9960   29.9080   -2.9780 C   0  0  0  0  0  0  0  0  0  0  0  0
    7.4050   31.1310   -2.4090 C   0  0  0  0  0  0  0  0  0  0  0  0
    5.9180   31.1860   -2.3550 C   0  0  0  0  0  0  0  0  0  0  0  0
    5.1100   30.0940   -2.7940 C   0  0  0  0  0  0  0  0  0  0  0  0
    5.7330   28.9200   -3.3470 C   0  0  0  0  0  0  0  0  0  0  0  0
    8.2080   32.2190   -1.9230 C   0  0  1  0  0  0  0  0  0  0  0  0
    9.4770   31.9350   -1.1840 C   0  0  0  0  0  0  0  0  0  0  0  0
   10.2930   32.9970   -0.6700 C   0  0  0  0  0  0  0  0  0  0  0  0
    9.9840   34.3880   -0.9680 C   0  0  1  0  0  0  0  0  0  0  0  0
    8.7720   34.6890   -1.6770 C   0  0  0  0  0  0  0  0  0  0  0  0
    7.9400   33.6530   -2.2260 C   0  0  2  0  0  0  0  0  0  0  0  0
   10.8540   35.5880   -0.4360 C   0  0  2  0  0  0  0  0  0  0  0  0
   10.2100   36.3010    0.8070 C   0  0  0  0  0  0  0  0  0  0  0  0
   11.1200   36.6260   -1.6110 C   0  0  0  0  0  0  0  0  0  0  0  0
   10.5880   37.7400   -1.5960 O   0  0  0  0  0  0  0  0  0  0  0  0
   11.8690   36.2900   -2.5550 O   0  0  0  0  0  0  0  0  0  0  0  0
    6.8130   34.0900   -2.9120 F   0  0  0  0  0  0  0  0  0  0  0  0
  2  1  1  0
  3  2  1  0
  4  3  1  0
  5  4  1  0
  6  5  1  0
  6  1  1  0
  7  3  1  6
  8  7  1  0
  9  8  1  0
 10  9  1  1
 11 10  1  0
 12  7  1  0
 12 11  1  0
 13 10  1  0
 13 14  1  1
 15 13  1  0
 16 15  1  0
 17 15  1  0
 12 18  1  1
M  END
$$$$
