
     RDKit          3D

 24 25  0  0  0  0  0  0  0  0999 V2000
   72.2550   -3.2850   -3.5340 F   0  0  0  0  0  0  0  0  0  0  0  0
   73.2260   -2.8190   -2.7710 C   0  0  2  0  0  0  0  0  0  0  0  0
   73.5620   -1.6250   -3.2140 F   0  0  0  0  0  0  0  0  0  0  0  0
   74.2730   -3.6110   -2.8920 F   0  0  0  0  0  0  0  0  0  0  0  0
   72.6880   -2.7260   -1.0240 S   0  0  2  0  0  0  0  0  0  0  0  0
   73.8950   -2.4820   -0.2990 O   0  0  0  0  0  0  0  0  0  0  0  0
   71.9340   -3.9210   -0.8180 O   0  0  0  0  0  0  0  0  0  0  0  0
   71.7300   -1.4700   -0.8620 N   0  0  0  0  0  0  0  0  0  0  0  0
   71.8800   -0.4820    0.2200 C   0  0  2  0  0  0  0  0  0  0  0  0
   70.5420    0.1800    0.4820 C   0  0  0  0  0  0  0  0  0  0  0  0
   70.0640    0.9600   -0.7360 C   0  0  0  0  0  0  0  0  0  0  0  0
   71.1030    1.9680   -1.1690 C   0  0  1  0  0  0  0  0  0  0  0  0
   72.4410    1.3150   -1.4280 C   0  0  0  0  0  0  0  0  0  0  0  0
   72.9080    0.5470   -0.2010 C   0  0  0  0  0  0  0  0  0  0  0  0
   70.7300    2.4830   -2.4710 O   0  0  0  0  0  0  0  0  0  0  0  0
   70.3310    3.7970   -2.3970 C   0  0  0  0  0  0  0  0  0  0  0  0
   71.2300    4.8060   -2.0910 C   0  0  0  0  0  0  0  0  0  0  0  0
   70.8050    6.1210   -2.0710 C   0  0  0  0  0  0  0  0  0  0  0  0
   69.4790    6.4440   -2.3580 C   0  0  0  0  0  0  0  0  0  0  0  0
   69.0580    7.8220   -2.3590 C   0  0  0  0  0  0  0  0  0  0  0  0
   68.7760    8.9310   -2.3470 N   0  0  0  0  0  0  0  0  0  0  0  0
   68.5900    5.4060   -2.6530 C   0  0  0  0  0  0  0  0  0  0  0  0
   66.9340    5.7480   -3.0260 Cl  0  0  0  0  0  0  0  0  0  0  0  0
   69.0060    4.0900   -2.6690 C   0  0  0  0  0  0  0  0  0  0  0  0
  2  1  1  6
  3  2  1  0
  4  2  1  0
  5  2  1  0
  5  6  1  1
  7  5  1  0
  8  5  1  0
  9  8  1  6
 10  9  1  0
 11 10  1  0
 12 11  1  0
 13 12  1  0
 14 13  1  0
 14  9  1  0
 12 15  1  6
 16 15  1  0
 17 16  1  0
 18 17  1  0
 19 18  1  0
 20 19  1  0
 21 20  1  0
 22 19  1  0
 23 22  1  0
 24 22  1  0
 24 16  1  0
M  END
$$$$
