
     RDKit          3D

 30 33  0  0  0  0  0  0  0  0999 V2000
   25.2160  -29.8310    1.6050 C   0  0  0  0  0  0  0  0  0  0  0  0
   25.5600  -27.5090    2.0810 C   0  0  0  0  0  0  0  0  0  0  0  0
   25.3570  -25.4140   -2.0020 C   0  0  0  0  0  0  0  0  0  0  0  0
   24.4710  -30.9690    4.0320 C   0  0  0  0  0  0  0  0  0  0  0  0
   24.8030  -31.6570    5.1780 C   0  0  0  0  0  0  0  0  0  0  0  0
   25.7300  -31.1390    1.3010 C   0  0  0  0  0  0  0  0  0  0  0  0
   23.5210  -31.4870    3.1810 C   0  0  0  0  0  0  0  0  0  0  0  0
   22.4320  -33.8010    1.1910 C   0  0  0  0  0  0  0  0  0  0  0  0
   24.1930  -27.3110    2.1850 C   0  0  0  0  0  0  0  0  0  0  0  0
   23.3370  -28.3840    2.0320 C   0  0  0  0  0  0  0  0  0  0  0  0
   23.8370  -29.6480    1.7580 C   0  0  2  0  0  0  0  0  0  0  0  0
   26.0730  -28.7540    1.7650 C   0  0  0  0  0  0  0  0  0  0  0  0
   26.6700  -26.1760    2.3920 S   0  0  1  0  0  0  0  0  0  0  0  0
   26.4260  -25.6760    3.7080 O   0  0  0  0  0  0  0  0  0  0  0  0
   27.9750  -26.5990    2.0190 O   0  0  0  0  0  0  0  0  0  0  0  0
   26.1890  -25.0350    1.3450 N   0  0  0  0  0  0  0  0  0  0  0  0
   26.0400  -25.4110    0.0600 C   0  0  1  0  0  0  0  0  0  0  0  0
   25.2830  -24.7900   -0.7760 N   0  0  0  0  0  0  0  0  0  0  0  0
   26.1840  -26.4570   -2.0850 C   0  0  0  0  0  0  0  0  0  0  0  0
   26.9230  -26.7260   -0.6270 S   0  0  0  0  0  0  0  0  0  0  0  0
   26.1020  -32.1880    1.0610 N   0  0  0  0  0  0  0  0  0  0  0  0
   23.1520  -30.7990    2.0540 O   0  0  0  0  0  0  0  0  0  0  0  0
   24.1760  -32.8450    5.4520 C   0  0  0  0  0  0  0  0  0  0  0  0
   23.2450  -33.3850    4.6060 C   0  0  0  0  0  0  0  0  0  0  0  0
   22.9230  -32.7170    3.4380 C   0  0  2  0  0  0  0  0  0  0  0  0
   22.0530  -33.3640    2.4390 C   0  0  0  0  0  0  0  0  0  0  0  0
   21.3560  -34.3800    0.6590 N   0  0  0  0  0  0  0  0  0  0  0  0
   20.2950  -34.3360    1.4910 N   0  0  0  0  0  0  0  0  0  0  0  0
   20.7220  -33.7050    2.5760 C   0  0  0  0  0  0  0  0  0  0  0  0
   24.5540  -33.6910    6.9060 Cl  0  0  0  0  0  0  0  0  0  0  0  0
  5  4  1  0
  6  1  1  0
  7  4  1  0
  9  2  1  0
 10  9  1  0
 11 10  1  0
 11  1  1  0
 12  2  1  0
 12  1  1  0
 13  2  1  0
 13 14  1  1
 15 13  1  0
 16 13  1  0
 17 16  1  6
 18 17  1  0
 18  3  1  0
 19  3  1  0
 20 19  1  0
 20 17  1  0
 21  6  1  0
 11 22  1  1
 22  7  1  0
 23  5  1  0
 24 23  1  0
 25 24  1  0
 25  7  1  0
 25 26  1  6
 26  8  1  0
 27  8  1  0
 28 27  1  0
 29 28  1  0
 29 26  1  0
 30 23  1  0
M  END
$$$$
