
     RDKit          3D

 25 27  0  0  0  0  0  0  0  0999 V2000
  -37.2100   61.8530    7.7270 N   0  0  0  0  0  0  0  0  0  0  0  0
  -32.8240   61.8130    9.1320 C   0  0  0  0  0  0  0  0  0  0  0  0
  -35.1300   62.0380    8.4980 O   0  0  0  0  0  0  0  0  0  0  0  0
  -34.1660   62.3450    9.5500 C   0  0  0  0  0  0  0  0  0  0  0  0
  -32.8510   61.3880    4.4230 C   0  0  0  0  0  0  0  0  0  0  0  0
  -31.5750   61.7690    4.8210 C   0  0  0  0  0  0  0  0  0  0  0  0
  -30.5240   61.3210    4.0480 C   0  0  0  0  0  0  0  0  0  0  0  0
  -31.9040   60.2030    2.6080 C   0  0  0  0  0  0  0  0  0  0  0  0
  -33.0530   60.5980    3.2870 C   0  0  0  0  0  0  0  0  0  0  0  0
  -36.4350   62.1920    8.8120 C   0  0  0  0  0  0  0  0  0  0  0  0
  -38.5810   61.8710    7.7120 C   0  0  0  0  0  0  0  0  0  0  0  0
  -39.2390   61.4800    6.4120 C   0  0  0  0  0  0  0  0  0  0  0  0
  -40.6630   61.4170    6.3070 C   0  0  0  0  0  0  0  0  0  0  0  0
  -41.0730   61.0970    5.0640 C   0  0  0  0  0  0  0  0  0  0  0  0
  -38.6230   61.1890    5.2230 C   0  0  0  0  0  0  0  0  0  0  0  0
  -36.6150   60.7670    3.8620 C   0  0  0  0  0  0  0  0  0  0  0  0
  -35.1680   60.8590    3.8810 C   0  0  0  0  0  0  0  0  0  0  0  0
  -37.2520   61.1710    5.0110 N   0  0  0  0  0  0  0  0  0  0  0  0
  -30.6630   60.5490    2.9660 N   0  0  0  0  0  0  0  0  0  0  0  0
  -34.3870   60.3150    2.9910 N   0  0  0  0  0  0  0  0  0  0  0  0
  -36.8470   62.5930    9.8790 O   0  0  0  0  0  0  0  0  0  0  0  0
  -39.2590   62.1630    8.7000 O   0  0  0  0  0  0  0  0  0  0  0  0
  -37.1860   60.3340    2.8670 O   0  0  0  0  0  0  0  0  0  0  0  0
  -39.7710   60.8490    3.9730 S   0  0  0  0  0  0  0  0  0  0  0  0
  -34.3840   61.7650    5.1550 S   0  0  0  0  0  0  0  0  0  0  0  0
  4  3  1  0
  4  2  1  0
  6  5  1  0
  7  6  1  0
  9  5  1  0
  9  8  1  0
 10  3  1  0
 10  1  1  0
 11  1  1  0
 12 11  1  0
 13 12  1  0
 14 13  1  0
 15 12  1  0
 17 16  1  0
 18 15  1  0
 18 16  1  0
 19  8  1  0
 19  7  1  0
 20 17  1  0
 20  9  1  0
 21 10  1  0
 22 11  1  0
 23 16  1  0
 24 15  1  0
 24 14  1  0
 25 17  1  0
 25  5  1  0
M  END
$$$$
