
     RDKit          3D

 22 21  0  0  0  0  0  0  0  0999 V2000
   75.0530  117.1740   34.6070 O   0  0  0  0  0  0  0  0  0  0  0  0
   73.7990  117.3500   34.7490 C   0  0  0  0  0  0  0  0  0  0  0  0
   72.9670  117.2250   33.7740 O   0  0  0  0  0  0  0  0  0  0  0  0
   73.2770  117.7400   36.1440 C   0  0  0  0  0  0  0  0  0  0  0  0
   74.3310  117.6870   37.2710 C   0  0  0  0  0  0  0  0  0  0  0  0
   74.8910  119.0820   37.5820 C   0  0  0  0  0  0  0  0  0  0  0  0
   74.0290  120.1590   36.9060 C   0  0  0  0  0  0  0  0  0  0  0  0
   74.5800  121.5620   37.1410 C   0  0  0  0  0  0  0  0  0  0  0  0
   74.0710  122.4120   35.9800 C   0  0  0  0  0  0  0  0  0  0  0  0
   74.2770  123.8940   36.2840 C   0  0  0  0  0  0  0  0  0  0  0  0
   74.5040  124.6200   34.9580 C   0  0  0  0  0  0  0  0  0  0  0  0
   74.8740  126.0740   35.2330 C   0  0  0  0  0  0  0  0  0  0  0  0
   75.1090  126.7730   33.8950 C   0  0  0  0  0  0  0  0  0  0  0  0
   75.4670  128.2430   34.1280 C   0  0  0  0  0  0  0  0  0  0  0  0
   75.2530  129.0370   32.8360 C   0  0  0  0  0  0  0  0  0  0  0  0
   75.9530  130.3920   32.9110 C   0  0  0  0  0  0  0  0  0  0  0  0
   75.0550  131.4580   32.2750 C   0  0  0  0  0  0  0  0  0  0  0  0
   75.1220  132.7060   33.1570 C   0  0  0  0  0  0  0  0  0  0  0  0
   73.7560  133.4060   33.2080 C   0  0  0  0  0  0  0  0  0  0  0  0
   73.8160  134.4480   34.3230 C   0  0  0  0  0  0  0  0  0  0  0  0
   72.4680  135.1360   34.4940 C   0  0  0  0  0  0  0  0  0  0  0  0
   72.4890  135.9370   35.7980 C   0  0  0  0  0  0  0  0  0  0  0  0
  2  1  1  0
  3  2  1  0
  4  2  1  0
  5  4  1  0
  6  5  1  0
  7  6  1  0
  8  7  1  0
  9  8  1  0
 10  9  1  0
 11 10  1  0
 12 11  1  0
 13 12  1  0
 14 13  1  0
 15 14  1  0
 16 15  1  0
 17 16  1  0
 18 17  1  0
 19 18  1  0
 20 19  1  0
 21 20  1  0
 22 21  1  0
M  END
$$$$
