
     RDKit          3D

 13 14  0  0  0  0  0  0  0  0999 V2000
   -3.9610    0.9170    8.7660 O   0  0  0  0  0  0  0  0  0  0  0  0
   -3.9670   -0.2260    9.5140 C   0  0  1  0  0  0  0  0  0  0  0  0
   -3.5220   -1.4030    8.8850 C   0  0  0  0  0  0  0  0  0  0  0  0
   -3.5190   -2.6130    9.6410 C   0  0  0  0  0  0  0  0  0  0  0  0
   -3.9150   -2.6080   10.9920 C   0  0  0  0  0  0  0  0  0  0  0  0
   -3.9980   -3.5370   11.9720 N   0  0  0  0  0  0  0  0  0  0  0  0
   -4.4100   -3.0070   13.1260 C   0  0  0  0  0  0  0  0  0  0  0  0
   -4.6730   -1.6430   13.0240 C   0  0  0  0  0  0  0  0  0  0  0  0
   -4.3220   -1.3480   11.6110 C   0  0  0  0  0  0  0  0  0  0  0  0
   -4.3540   -0.1370   10.8770 C   0  0  0  0  0  0  0  0  0  0  0  0
   -5.1960   -0.5720   13.9990 C   0  0  0  0  0  0  0  0  0  0  0  0
   -5.4410   -1.1510   15.4050 C   0  0  0  0  0  0  0  0  0  0  0  0
   -4.1880   -0.9810   16.1790 N   0  0  0  0  0  0  0  0  0  0  0  0
  2  1  1  1
  3  2  1  0
  4  3  1  0
  5  4  1  0
  6  5  1  0
  7  6  1  0
  8  7  1  0
  9  8  1  0
  9  5  1  0
 10  2  1  0
 10  9  1  0
 11  8  1  0
 12 11  1  0
 13 12  1  0
M  END
$$$$
