
     RDKit          3D

 25 27  0  0  0  0  0  0  0  0999 V2000
    3.4550  -16.1910   28.4830 F   0  0  0  0  0  0  0  0  0  0  0  0
    8.4960  -17.8640   24.9750 F   0  0  0  0  0  0  0  0  0  0  0  0
    5.2610  -18.1270   32.4180 F   0  0  0  0  0  0  0  0  0  0  0  0
    5.9590  -19.0610   26.4160 O   0  0  0  0  0  0  0  0  0  0  0  0
    3.1660  -19.2110   26.5980 N   0  0  0  0  0  0  0  0  0  0  0  0
    7.5630  -15.2330   27.3770 N   0  0  0  0  0  0  0  0  0  0  0  0
    3.2490  -20.4180   25.9990 N   0  0  0  0  0  0  0  0  0  0  0  0
    1.9330  -20.5940   27.6860 N   0  0  0  0  0  0  0  0  0  0  0  0
    9.8560  -15.4640   26.9860 N   0  0  0  0  0  0  0  0  0  0  0  0
    5.2560  -17.8830   26.7600 C   0  0  1  0  0  0  0  0  0  0  0  0
    5.9100  -16.6410   26.1130 C   0  0  1  0  0  0  0  0  0  0  0  0
    3.8280  -17.9720   26.2080 C   0  0  0  0  0  0  0  0  0  0  0  0
    5.1990  -17.8670   28.2880 C   0  0  0  0  0  0  0  0  0  0  0  0
    5.0550  -15.3610   26.2060 C   0  0  0  0  0  0  0  0  0  0  0  0
    7.3360  -16.2010   26.5170 C   0  0  1  0  0  0  0  0  0  0  0  0
    4.3440  -17.0680   29.0540 C   0  0  0  0  0  0  0  0  0  0  0  0
    6.0600  -18.7690   28.9100 C   0  0  0  0  0  0  0  0  0  0  0  0
    8.3320  -16.8350   25.8820 C   0  0  0  0  0  0  0  0  0  0  0  0
    4.3870  -17.1720   30.4380 C   0  0  0  0  0  0  0  0  0  0  0  0
    6.0980  -18.8560   30.2860 C   0  0  0  0  0  0  0  0  0  0  0  0
    2.3570  -19.3210   27.6320 C   0  0  0  0  0  0  0  0  0  0  0  0
    5.2570  -18.0710   31.0460 C   0  0  0  0  0  0  0  0  0  0  0  0
    9.6210  -16.4800   26.1440 C   0  0  0  0  0  0  0  0  0  0  0  0
    8.8420  -14.8420   27.6340 C   0  0  0  0  0  0  0  0  0  0  0  0
    2.4930  -21.2630   26.6710 C   0  0  0  0  0  0  0  0  0  0  0  0
  7  5  1  0
 10  4  1  1
 11 10  1  0
 12 10  1  0
 12  5  1  0
 13 10  1  0
 11 14  1  1
 15 11  1  0
 15  6  1  6
 16 13  1  0
 16  1  1  0
 17 13  1  0
 18  2  1  0
 18 15  1  0
 19 16  1  0
 20 17  1  0
 21  5  1  0
 21  8  1  0
 22 19  1  0
 22  3  1  0
 22 20  1  0
 23 18  1  0
 23  9  1  0
 24  9  1  0
 24  6  1  0
 25  7  1  0
 25  8  1  0
M  END
$$$$
