
     RDKit          3D

 22 24  0  0  0  0  0  0  0  0999 V2000
   19.3040    9.6420  153.2610 O   0  0  0  0  0  0  0  0  0  0  0  0
   19.4500    9.2800  154.6200 C   0  0  1  0  0  0  0  0  0  0  0  0
   20.8980    9.0940  154.9760 C   0  0  0  0  0  0  0  0  0  0  0  0
   18.9100   10.4060  155.4860 C   0  0  0  0  0  0  0  0  0  0  0  0
   18.7850    7.9410  154.7910 C   0  0  0  0  0  0  0  0  0  0  0  0
   21.0240    8.5700  156.3660 N   0  0  0  0  0  0  0  0  0  0  0  0
   21.0230    7.2750  156.8360 C   0  0  0  0  0  0  0  0  0  0  0  0
   21.1890    9.4250  157.4640 N   0  0  0  0  0  0  0  0  0  0  0  0
   21.1920    7.2870  158.1950 N   0  0  0  0  0  0  0  0  0  0  0  0
   21.3220    8.6210  158.5900 C   0  0  0  0  0  0  0  0  0  0  0  0
   19.5120   11.7220  155.1060 N   0  0  0  0  0  0  0  0  0  0  0  0
   19.2080   12.6260  154.1940 C   0  0  0  0  0  0  0  0  0  0  0  0
   20.5500   12.0920  155.8650 N   0  0  0  0  0  0  0  0  0  0  0  0
   20.0200   13.6660  154.3420 N   0  0  0  0  0  0  0  0  0  0  0  0
   20.7890   13.3180  155.3980 C   0  0  0  0  0  0  0  0  0  0  0  0
   18.8950    6.9080  153.8260 C   0  0  0  0  0  0  0  0  0  0  0  0
   18.0280    7.6550  156.0180 C   0  0  0  0  0  0  0  0  0  0  0  0
   18.2780    5.6620  154.0440 C   0  0  0  0  0  0  0  0  0  0  0  0
   17.5460    5.4360  155.2140 C   0  0  0  0  0  0  0  0  0  0  0  0
   16.9100    4.2810  155.5150 F   0  0  0  0  0  0  0  0  0  0  0  0
   17.4350    6.4050  156.1840 C   0  0  0  0  0  0  0  0  0  0  0  0
   17.8520    8.5210  157.0300 F   0  0  0  0  0  0  0  0  0  0  0  0
  2  1  1  6
  3  2  1  0
  4  2  1  0
  5  2  1  0
  6  3  1  0
  7  6  1  0
  8  6  1  0
  9  7  1  0
 10  8  1  0
 10  9  1  0
 11  4  1  0
 12 11  1  0
 13 11  1  0
 14 12  1  0
 15 14  1  0
 15 13  1  0
 16  5  1  0
 17  5  1  0
 18 16  1  0
 19 18  1  0
 20 19  1  0
 21 19  1  0
 21 17  1  0
 22 17  1  0
M  END
$$$$
