
     RDKit          3D

  4  3  0  0  0  0  0  0  0  0999 V2000
   11.6490   17.4040  -13.2750 C   0  0  0  0  0  0  0  0  0  0  0  0
   12.9710   17.4110  -12.5030 C   0  0  0  0  0  0  0  0  0  0  0  0
   13.0570   16.2960  -11.4810 C   0  0  0  0  0  0  0  0  0  0  0  0
   12.9310   14.9670  -12.0780 N   0  0  0  0  0  0  0  0  0  0  0  0
  2  1  1  0
  3  2  1  0
  4  3  1  0
M  END
$$$$
