
     RDKit          3D

 10 11  0  0  0  0  0  0  0  0999 V2000
   33.7590   14.5740  -61.8960 N   0  0  0  0  0  0  0  0  0  0  0  0
   34.6070   15.8030  -62.1920 C   0  0  1  0  0  0  0  0  0  0  0  0
   33.7710   16.9790  -62.1870 C   0  0  1  0  0  0  0  0  0  0  0  0
   32.8890   17.3180  -63.1490 C   0  0  0  0  0  0  0  0  0  0  0  0
   32.1330   18.4780  -62.9450 C   0  0  0  0  0  0  0  0  0  0  0  0
   32.2600   19.1530  -61.7880 C   0  0  0  0  0  0  0  0  0  0  0  0
   33.1890   18.8540  -60.7930 C   0  0  0  0  0  0  0  0  0  0  0  0
   33.9160   17.6880  -61.0220 C   0  0  2  0  0  0  0  0  0  0  0  0
   34.9900   17.1230  -60.1680 C   0  0  0  0  0  0  0  0  0  0  0  0
   35.5810   16.0220  -61.0560 C   0  0  0  0  0  0  0  0  0  0  0  0
  2  1  1  1
  3  2  1  0
  3  4  1  1
  5  4  1  0
  6  5  1  0
  7  6  1  0
  8  7  1  6
  8  3  1  0
  9  8  1  0
 10  2  1  0
 10  9  1  0
M  END
$$$$
