
     RDKit          3D

 11 12  0  0  0  0  0  0  0  0999 V2000
   35.6960   14.5720  -61.9880 N   0  0  0  0  0  0  0  0  0  0  0  0
   36.2180   15.8630  -62.5130 C   0  0  2  0  0  0  0  0  0  0  0  0
   36.8000   16.6690  -61.4140 C   0  0  0  0  0  0  0  0  0  0  0  0
   37.9640   16.2070  -60.7870 C   0  0  0  0  0  0  0  0  0  0  0  0
   38.5430   16.9210  -59.7370 C   0  0  0  0  0  0  0  0  0  0  0  0
   35.1600   16.6210  -63.3100 C   0  0  0  0  0  0  0  0  0  0  0  0
   34.2380   17.4270  -62.4320 C   0  0  0  0  0  0  0  0  0  0  0  0
   34.9940   18.4620  -61.6420 C   0  0  0  0  0  0  0  0  0  0  0  0
   36.2410   17.8910  -61.0070 C   0  0  0  0  0  0  0  0  0  0  0  0
   36.8140   18.6050  -59.9540 C   0  0  0  0  0  0  0  0  0  0  0  0
   37.9660   18.1180  -59.3360 C   0  0  0  0  0  0  0  0  0  0  0  0
  2  1  1  1
  3  2  1  0
  4  3  1  0
  5  4  1  0
  6  2  1  0
  7  6  1  0
  8  7  1  0
  9  8  1  0
  9  3  1  0
 10  9  1  0
 11 10  1  0
 11  5  1  0
M  END
$$$$
