
     RDKit          3D

 11 12  0  0  0  0  0  0  0  0999 V2000
   13.1610   14.5780  -11.6400 N   0  0  0  0  0  0  0  0  0  0  0  0
   12.2790   15.7670  -11.3860 C   0  0  2  0  0  0  0  0  0  0  0  0
   11.3840   16.0290  -12.5730 C   0  0  0  0  0  0  0  0  0  0  0  0
   12.1290   16.6150  -13.7480 C   0  0  0  0  0  0  0  0  0  0  0  0
   12.9710   17.8260  -13.4290 C   0  0  0  0  0  0  0  0  0  0  0  0
   13.4920   17.8720  -12.0080 C   0  0  0  0  0  0  0  0  0  0  0  0
   14.3390   18.9300  -11.6540 C   0  0  0  0  0  0  0  0  0  0  0  0
   14.8380   19.0260  -10.3620 C   0  0  0  0  0  0  0  0  0  0  0  0
   14.4590   18.0890   -9.4220 C   0  0  0  0  0  0  0  0  0  0  0  0
   13.6290   17.0330   -9.7830 C   0  0  0  0  0  0  0  0  0  0  0  0
   13.1540   16.9020  -11.0750 C   0  0  0  0  0  0  0  0  0  0  0  0
  2  1  1  6
  3  2  1  0
  4  3  1  0
  5  4  1  0
  6  5  1  0
  7  6  1  0
  8  7  1  0
  9  8  1  0
 10  9  1  0
 11  2  1  0
 11  6  1  0
 11 10  1  0
M  END
$$$$
