
     RDKit          3D

 18 17  0  0  0  0  0  0  0  0999 V2000
   -1.4580  -23.2610  -16.7930 C   0  0  0  0  0  0  0  0  0  0  0  0
   -2.6150  -23.1850  -16.2930 O   0  0  0  0  0  0  0  0  0  0  0  0
   -0.5520  -24.1120  -16.5690 O   0  0  0  0  0  0  0  0  0  0  0  0
   -1.1230  -22.1450  -17.8380 C   0  0  0  0  0  0  0  0  0  0  0  0
   -0.6590  -20.8030  -17.2630 C   0  0  0  0  0  0  0  0  0  0  0  0
    0.6680  -20.8550  -16.4840 C   0  0  0  0  0  0  0  0  0  0  0  0
    0.9080  -19.6040  -15.6240 C   0  0  0  0  0  0  0  0  0  0  0  0
    2.2390  -19.5840  -14.8590 C   0  0  0  0  0  0  0  0  0  0  0  0
    2.5150  -18.2360  -14.1790 C   0  0  0  0  0  0  0  0  0  0  0  0
    3.9940  -17.9700  -13.8670 C   0  0  0  0  0  0  0  0  0  0  0  0
    4.2050  -17.1800  -12.5690 C   0  0  0  0  0  0  0  0  0  0  0  0
    5.3950  -17.6550  -11.7300 C   0  0  0  0  0  0  0  0  0  0  0  0
    6.4940  -16.6000  -11.5640 C   0  0  0  0  0  0  0  0  0  0  0  0
    7.8760  -17.0850  -12.0040 C   0  0  0  0  0  0  0  0  0  0  0  0
    8.8970  -17.1550  -10.8590 C   0  0  0  0  0  0  0  0  0  0  0  0
    8.5590  -16.2650   -9.6560 C   0  0  0  0  0  0  0  0  0  0  0  0
    9.0630  -16.8190   -8.3150 C   0  0  0  0  0  0  0  0  0  0  0  0
    9.2960  -15.7300   -7.2590 C   0  0  0  0  0  0  0  0  0  0  0  0
  2  1  1  0
  3  1  1  0
  4  1  1  0
  5  4  1  0
  6  5  1  0
  7  6  1  0
  8  7  1  0
  9  8  1  0
 10  9  1  0
 11 10  1  0
 12 11  1  0
 13 12  1  0
 14 13  1  0
 15 14  1  0
 16 15  1  0
 17 16  1  0
 18 17  1  0
M  END
$$$$
