
     RDKit          3D

  8  8  0  0  0  0  0  0  0  0999 V2000
  -20.4700  -25.8040  -16.9070 C   0  0  0  0  0  0  0  0  0  0  0  0
  -21.7520  -26.6130  -16.7210 C   0  0  0  0  0  0  0  0  0  0  0  0
  -20.3050  -25.3410  -18.3540 C   0  0  0  0  0  0  0  0  0  0  0  0
  -21.4040  -25.1640  -19.1660 C   0  0  0  0  0  0  0  0  0  0  0  0
  -19.0420  -25.0880  -18.8640 C   0  0  0  0  0  0  0  0  0  0  0  0
  -21.2040  -24.7430  -20.4680 C   0  0  0  0  0  0  0  0  0  0  0  0
  -18.8440  -24.6670  -20.1650 C   0  0  0  0  0  0  0  0  0  0  0  0
  -19.9430  -24.4900  -20.9760 C   0  0  0  0  0  0  0  0  0  0  0  0
  2  1  1  0
  3  1  1  0
  4  3  1  0
  5  3  1  0
  6  4  1  0
  7  5  1  0
  8  7  1  0
  8  6  1  0
M  END
$$$$
