
     RDKit          3D

 12 12  0  0  0  0  0  0  0  0999 V2000
    6.9060  -16.9890    8.6020 C   0  0  0  0  0  0  0  0  0  0  0  0
    6.9180  -18.2910   10.6360 C   0  0  0  0  0  0  0  0  0  0  0  0
    6.3300  -18.2540    9.2250 C   0  0  0  0  0  0  0  0  0  0  0  0
    6.6740  -19.5780   11.4100 C   0  0  0  0  0  0  0  0  0  0  0  0
    5.3080  -20.2250   13.4250 C   0  0  0  0  0  0  0  0  0  0  0  0
    6.0990  -21.3370   13.6810 C   0  0  0  0  0  0  0  0  0  0  0  0
    5.6780  -22.2040   14.6690 C   0  0  0  0  0  0  0  0  0  0  0  0
    3.7980  -20.9340   15.1080 C   0  0  0  0  0  0  0  0  0  0  0  0
    4.1390  -20.0120   14.1410 C   0  0  0  0  0  0  0  0  0  0  0  0
    5.6820  -19.2710   12.4110 N   0  0  0  0  0  0  0  0  0  0  0  0
    4.5610  -21.9810   15.3350 N   0  0  0  0  0  0  0  0  0  0  0  0
    6.3680  -15.9500    8.7770 O   0  0  0  0  0  0  0  0  0  0  0  0
  3  2  1  0
  3  1  1  0
  4  2  1  0
  6  5  1  0
  7  6  1  0
  9  8  1  0
  9  5  1  0
 10  5  1  0
 10  4  1  0
 11  8  1  0
 11  7  1  0
 12  1  1  0
M  END
$$$$
