
     RDKit          3D

 14 15  0  0  0  0  0  0  0  0999 V2000
    0.9820   -4.4350   23.7580 C   0  0  2  0  0  0  0  0  0  0  0  0
   -0.9710   -3.2050   22.8960 C   0  0  0  0  0  0  0  0  0  0  0  0
    1.8270   -4.0100   22.6140 C   0  0  0  0  0  0  0  0  0  0  0  0
   -0.4840   -2.1920   20.7180 C   0  0  0  0  0  0  0  0  0  0  0  0
   -1.5900   -2.8800   20.2410 C   0  0  0  0  0  0  0  0  0  0  0  0
    0.2020   -1.3410   19.8630 C   0  0  0  0  0  0  0  0  0  0  0  0
    1.5010   -5.7510   24.3400 C   0  0  0  0  0  0  0  0  0  0  0  0
   -0.4190   -4.5740   23.2880 C   0  0  0  0  0  0  0  0  0  0  0  0
    1.4210   -2.6130   22.1540 C   0  0  0  0  0  0  0  0  0  0  0  0
   -1.9610   -2.6930   18.9210 C   0  0  0  0  0  0  0  0  0  0  0  0
   -0.2310   -1.2060   18.5560 C   0  0  0  0  0  0  0  0  0  0  0  0
   -0.0460   -2.3430   22.0960 N   0  0  0  0  0  0  0  0  0  0  0  0
   -1.2840   -1.8800   18.1350 N   0  0  0  0  0  0  0  0  0  0  0  0
    1.0690   -6.7880   23.9630 O   0  0  0  0  0  0  0  0  0  0  0  0
  3  1  1  0
  5  4  1  0
  6  4  1  0
  1  7  1  6
  8  2  1  0
  8  1  1  0
  9  3  1  0
 10  5  1  0
 11  6  1  0
 12  4  1  0
 12  9  1  0
 12  2  1  0
 13 11  1  0
 13 10  1  0
 14  7  1  0
M  END
$$$$
