
     RDKit          3D

 17 18  0  0  0  0  0  0  0  0999 V2000
    7.1440   -5.3820   -9.0830 N   0  0  0  0  0  0  0  0  0  0  0  0
    6.1020   -4.9470   -8.3790 C   0  0  0  0  0  0  0  0  0  0  0  0
    6.2780   -3.9800   -7.3780 C   0  0  2  0  0  0  0  0  0  0  0  0
    7.5470   -3.5120   -7.0900 C   0  0  0  0  0  0  0  0  0  0  0  0
    8.6250   -3.9890   -7.8200 C   0  0  0  0  0  0  0  0  0  0  0  0
    8.4060   -4.9210   -8.8270 C   0  0  0  0  0  0  0  0  0  0  0  0
    5.0880   -3.5450   -6.6120 C   0  0  2  0  0  0  0  0  0  0  0  0
    4.0950   -4.2460   -6.6530 O   0  0  0  0  0  0  0  0  0  0  0  0
    3.6660   -2.1510   -5.1560 C   0  0  0  0  0  0  0  0  0  0  0  0
    5.0380   -2.2250   -5.8360 C   0  0  2  0  0  0  0  0  0  0  0  0
    5.2350   -1.0280   -6.8060 C   0  0  0  0  0  0  0  0  0  0  0  0
    6.0910   -2.2170   -4.7200 C   0  0  0  0  0  0  0  0  0  0  0  0
    6.2340   -3.3370   -3.9290 C   0  0  0  0  0  0  0  0  0  0  0  0
    7.1490   -3.3730   -2.9270 N   0  0  0  0  0  0  0  0  0  0  0  0
    7.9130   -2.3050   -2.6500 C   0  0  0  0  0  0  0  0  0  0  0  0
    7.8000   -1.1430   -3.4070 C   0  0  0  0  0  0  0  0  0  0  0  0
    6.8870   -1.0910   -4.4560 C   0  0  0  0  0  0  0  0  0  0  0  0
  2  1  1  0
  3  2  1  1
  4  3  1  0
  5  4  1  0
  6  5  1  0
  6  1  1  0
  7  3  1  0
  7  8  1  6
 10  7  1  0
 10  9  1  1
 11 10  1  0
 12 10  1  0
 13 12  1  0
 14 13  1  0
 15 14  1  0
 16 15  1  0
 17 16  1  0
 17 12  1  0
M  END
$$$$
