
     RDKit          3D

 30 32  0  0  0  0  0  0  0  0999 V2000
   -4.6780    7.5120    9.6720 O   0  0  0  0  0  0  0  0  0  0  0  0
    3.3890   -2.9790   15.1370 O   0  0  0  0  0  0  0  0  0  0  0  0
   -1.0580    8.2230   10.7020 C   0  0  1  0  0  0  0  0  0  0  0  0
   -2.4240    8.4130   10.0230 C   0  0  0  0  0  0  0  0  0  0  0  0
   -3.4450    7.3330   10.3990 C   0  0  1  0  0  0  0  0  0  0  0  0
   -3.7060    7.3580   11.9080 C   0  0  0  0  0  0  0  0  0  0  0  0
   -2.3810    7.2000   12.6230 C   0  0  0  0  0  0  0  0  0  0  0  0
   -2.3230    6.2880   13.6290 C   0  0  0  0  0  0  0  0  0  0  0  0
   -1.1360    5.9780   14.4060 C   0  0  0  0  0  0  0  0  0  0  0  0
   -1.0920    5.1380   15.4690 C   0  0  0  0  0  0  0  0  0  0  0  0
   -2.3090    4.4130   16.0380 C   0  0  0  0  0  0  0  0  0  0  0  0
   -1.2580    8.0480   12.1810 C   0  0  0  0  0  0  0  0  0  0  0  0
   -1.9970    2.9170   16.2980 C   0  0  0  0  0  0  0  0  0  0  0  0
   -0.5960    2.5660   16.8540 C   0  0  0  0  0  0  0  0  0  0  0  0
    0.5230    3.3470   16.1670 C   0  0  1  0  0  0  0  0  0  0  0  0
    0.2020    4.8470   16.1890 C   0  0  1  0  0  0  0  0  0  0  0  0
    1.5170    5.5130   15.7740 C   0  0  0  0  0  0  0  0  0  0  0  0
    2.5990    4.5690   16.3120 C   0  0  0  0  0  0  0  0  0  0  0  0
    1.8660    3.3570   16.9050 C   0  0  2  0  0  0  0  0  0  0  0  0
    0.6770    2.8580   14.7110 C   0  0  0  0  0  0  0  0  0  0  0  0
   -0.4700    8.6670   13.0460 C   0  0  0  0  0  0  0  0  0  0  0  0
    2.6800    2.0290   17.0590 C   0  0  2  0  0  0  0  0  0  0  0  0
    3.8780    2.2130   17.9970 C   0  0  0  0  0  0  0  0  0  0  0  0
    3.2360    1.3770   15.7920 C   0  0  0  0  0  0  0  0  0  0  0  0
    2.8740   -0.0990   15.7170 C   0  0  0  0  0  0  0  0  0  0  0  0
    3.2640   -0.6670   14.3610 C   0  0  0  0  0  0  0  0  0  0  0  0
    2.8890   -2.1290   14.0950 C   0  0  2  0  0  0  0  0  0  0  0  0
    1.3710   -2.3510   14.0030 C   0  0  0  0  0  0  0  0  0  0  0  0
    3.5600   -2.5190   12.7760 C   0  0  0  0  0  0  0  0  0  0  0  0
   -0.5030    7.0160   10.2040 O   0  0  0  0  0  0  0  0  0  0  0  0
  4  3  1  0
  5  4  1  0
  5  1  1  6
  6  5  1  0
  7  6  1  0
  8  7  1  0
  9  8  1  0
 10  9  1  0
 11 10  1  0
 12  3  1  0
 12  7  1  0
 13 11  1  0
 14 13  1  0
 15 14  1  0
 16 15  1  0
 16 10  1  0
 16 17  1  6
 18 17  1  0
 19 18  1  6
 19 15  1  0
 15 20  1  6
 21 12  1  0
 22 19  1  0
 22 23  1  1
 24 22  1  0
 25 24  1  0
 26 25  1  0
 27 26  1  0
 27  2  1  0
 27 28  1  6
 29 27  1  0
  3 30  1  6
M  END
$$$$
