
     RDKit          3D

 31 33  0  0  0  0  0  0  0  0999 V2000
    2.4970   -2.9150   15.5110 O   0  0  0  0  0  0  0  0  0  0  0  0
    1.8820   -2.4110   14.3040 C   0  0  1  0  0  0  0  0  0  0  0  0
    2.7000   -2.9450   13.1270 C   0  0  0  0  0  0  0  0  0  0  0  0
    0.4270   -2.9240   14.2630 C   0  0  0  0  0  0  0  0  0  0  0  0
    1.9350   -0.8610   14.2730 C   0  0  2  0  0  0  0  0  0  0  0  0
    1.5050   -0.2530   15.6080 C   0  0  0  0  0  0  0  0  0  0  0  0
    1.6190    1.0570   15.8310 C   0  0  0  0  0  0  0  0  0  0  0  0
    1.1990    1.7340   17.1140 C   0  0  1  0  0  0  0  0  0  0  0  0
    2.5080    1.9570   17.8940 C   0  0  0  0  0  0  0  0  0  0  0  0
    0.3390    3.0330   16.9690 C   0  0  1  0  0  0  0  0  0  0  0  0
    1.0860    4.2830   16.4220 C   0  0  0  0  0  0  0  0  0  0  0  0
   -0.9890    3.0810   16.1820 C   0  0  2  0  0  0  0  0  0  0  0  0
   -0.8590    2.6100   14.7260 C   0  0  0  0  0  0  0  0  0  0  0  0
   -1.3160    4.5820   16.2310 C   0  0  1  0  0  0  0  0  0  0  0  0
    0.0180    5.2510   15.8750 C   0  0  0  0  0  0  0  0  0  0  0  0
   -2.1710    2.3670   16.8460 C   0  0  0  0  0  0  0  0  0  0  0  0
   -3.5240    2.6650   16.1690 C   0  0  0  0  0  0  0  0  0  0  0  0
   -3.7880    4.1140   15.7110 C   0  0  0  0  0  0  0  0  0  0  0  0
   -2.5310    4.9000   15.3720 C   0  0  0  0  0  0  0  0  0  0  0  0
   -2.5210    5.8380   14.3640 C   0  0  0  0  0  0  0  0  0  0  0  0
   -3.5530    6.1730   13.5500 C   0  0  0  0  0  0  0  0  0  0  0  0
   -3.5330    7.1180   12.5440 C   0  0  0  0  0  0  0  0  0  0  0  0
   -2.4390    7.8690   12.2020 C   0  0  0  0  0  0  0  0  0  0  0  0
   -4.7980    7.3630   11.7160 C   0  0  0  0  0  0  0  0  0  0  0  0
   -4.4220    7.3090   10.2190 C   0  0  1  0  0  0  0  0  0  0  0  0
   -5.5020    7.6050    9.3380 O   0  0  0  0  0  0  0  0  0  0  0  0
   -3.3150    8.3080    9.8880 C   0  0  0  0  0  0  0  0  0  0  0  0
    1.1300   -0.2950   13.0790 C   0  0  0  0  0  0  0  0  0  0  0  0
   -2.0630    8.0440   10.7410 C   0  0  2  0  0  0  0  0  0  0  0  0
   -1.3580    6.9010   10.2330 O   0  0  0  0  0  0  0  0  0  0  0  0
   -1.6940    8.5050   13.1210 C   0  0  0  0  0  0  0  0  0  0  0  0
  2  1  1  0
  2  3  1  6
  4  2  1  0
  5  2  1  0
  6  5  1  0
  7  6  1  0
  8  7  1  0
  8  9  1  6
 10  8  1  0
 10 11  1  6
 12 10  1  0
 12 13  1  6
 14 12  1  0
 14 15  1  6
 15 11  1  0
 16 12  1  0
 17 16  1  0
 18 17  1  0
 19 18  1  0
 19 14  1  0
 20 19  1  0
 21 20  1  0
 22 21  1  0
 23 22  1  0
 24 22  1  0
 25 24  1  0
 25 26  1  6
 27 25  1  0
  5 28  1  6
 29 27  1  0
 29 23  1  0
 29 30  1  6
 31 23  1  0
M  END
$$$$
