
     RDKit          3D

 20 21  0  0  0  0  0  0  0  0999 V2000
   -0.5340    6.6200   11.8200 C   0  0  0  0  0  0  0  0  0  0  0  0
    0.7220    4.6440   11.5120 O   0  0  0  0  0  0  0  0  0  0  0  0
   -1.7240    7.2740   11.5020 C   0  0  0  0  0  0  0  0  0  0  0  0
   -2.0780    8.4890   12.0660 C   0  0  0  0  0  0  0  0  0  0  0  0
   -1.0520    4.9400   10.2150 O   0  0  0  0  0  0  0  0  0  0  0  0
   -1.2120    9.0680   12.9840 C   0  0  0  0  0  0  0  0  0  0  0  0
   -0.0220    8.4470   13.3220 C   0  0  0  0  0  0  0  0  0  0  0  0
    0.3470    7.2150   12.7620 C   0  0  0  0  0  0  0  0  0  0  0  0
   -0.2600    5.2920   11.1320 C   0  0  0  0  0  0  0  0  0  0  0  0
    1.5340    6.5700   13.0770 N   0  0  0  0  0  0  0  0  0  0  0  0
    2.5130    6.8330   14.0210 C   0  0  0  0  0  0  0  0  0  0  0  0
    3.8340    6.4960   13.6870 C   0  0  0  0  0  0  0  0  0  0  0  0
    4.8700    6.7190   14.5860 C   0  0  0  0  0  0  0  0  0  0  0  0
    4.6380    7.2790   15.8340 C   0  0  0  0  0  0  0  0  0  0  0  0
    3.3450    7.6150   16.1870 C   0  0  0  0  0  0  0  0  0  0  0  0
    2.2970    7.3980   15.2960 C   0  0  0  0  0  0  0  0  0  0  0  0
    6.2630    6.3430   14.1820 C   0  0  1  0  0  0  0  0  0  0  0  0
    7.0670    7.3900   13.9910 F   0  0  0  0  0  0  0  0  0  0  0  0
    6.8560    5.5780   15.1070 F   0  0  0  0  0  0  0  0  0  0  0  0
    6.2930    5.6280   13.0520 F   0  0  0  0  0  0  0  0  0  0  0  0
  3  1  1  0
  4  3  1  0
  6  4  1  0
  7  6  1  0
  8  7  1  0
  8  1  1  0
  9  5  1  0
  9  2  1  0
  9  1  1  0
 10  8  1  0
 11 10  1  0
 12 11  1  0
 13 12  1  0
 14 13  1  0
 15 14  1  0
 16 15  1  0
 16 11  1  0
 17 13  1  0
 17 18  1  6
 19 17  1  0
 20 17  1  0
M  END
$$$$
