
     RDKit          3D

 31 32  0  0  0  0  0  0  0  0999 V2000
   -2.3340    8.2820    9.8340 O   0  0  0  0  0  0  0  0  0  0  0  0
   -3.7240    6.6150    9.5390 O   0  0  0  0  0  0  0  0  0  0  0  0
   -1.0270    8.5720   11.4610 O   0  0  0  0  0  0  0  0  0  0  0  0
    0.1140    5.5010   11.0040 O   0  0  0  0  0  0  0  0  0  0  0  0
    2.1280    4.1000   14.9160 O   0  0  0  0  0  0  0  0  0  0  0  0
    1.3660    2.1100   15.8500 O   0  0  0  0  0  0  0  0  0  0  0  0
   -2.9160    7.2560   10.2460 C   0  0  0  0  0  0  0  0  0  0  0  0
   -2.6430    6.7610   11.6500 C   0  0  0  0  0  0  0  0  0  0  0  0
   -1.6150    7.6340   12.3690 C   0  0  1  0  0  0  0  0  0  0  0  0
   -0.5040    6.7710   12.9610 C   0  0  0  0  0  0  0  0  0  0  0  0
    0.5770    6.4970   11.9230 C   0  0  1  0  0  0  0  0  0  0  0  0
    1.8430    5.9500   12.5650 C   0  0  0  0  0  0  0  0  0  0  0  0
    2.4270    6.7470   13.7300 C   0  0  0  0  0  0  0  0  0  0  0  0
    3.9060    6.3600   13.7900 C   0  0  1  0  0  0  0  0  0  0  0  0
    4.8410    7.5430   14.0600 C   0  0  2  0  0  0  0  0  0  0  0  0
    6.2870    7.1310   13.8330 C   0  0  0  0  0  0  0  0  0  0  0  0
    6.6430    5.8430   13.8030 C   0  0  0  0  0  0  0  0  0  0  0  0
    5.5520    4.8580   13.8520 C   0  0  2  0  0  0  0  0  0  0  0  0
    5.5520    3.7780   13.0610 C   0  0  0  0  0  0  0  0  0  0  0  0
    4.5610    2.6580   13.2520 C   0  0  1  0  0  0  0  0  0  0  0  0
    4.1040    2.6720   14.7000 C   0  0  0  0  0  0  0  0  0  0  0  0
    3.5390    4.0180   15.1650 C   0  0  1  0  0  0  0  0  0  0  0  0
    4.3920    5.2360   14.7180 C   0  0  2  0  0  0  0  0  0  0  0  0
    4.6980    8.0230   15.4980 C   0  0  0  0  0  0  0  0  0  0  0  0
    1.3100    3.3300   15.8490 C   0  0  0  0  0  0  0  0  0  0  0  0
    0.3960    4.0300   16.8200 C   0  0  1  0  0  0  0  0  0  0  0  0
   -0.7220    3.0680   17.2060 C   0  0  0  0  0  0  0  0  0  0  0  0
   -1.8730    3.7800   17.8830 C   0  0  0  0  0  0  0  0  0  0  0  0
    1.1980    4.4360   18.0500 C   0  0  0  0  0  0  0  0  0  0  0  0
   -0.1790    5.2680   16.1430 C   0  0  0  0  0  0  0  0  0  0  0  0
    3.3880    2.8000   12.2910 C   0  0  0  0  0  0  0  0  0  0  0  0
  7  2  1  0
  7  1  1  0
  8  7  1  0
  9  8  1  0
  9  3  1  6
 10  9  1  0
 11 10  1  0
 11  4  1  6
 12 11  1  0
 13 12  1  0
 14 13  1  1
 15 14  1  0
 16 15  1  0
 17 16  1  0
 18 17  1  6
 19 18  1  0
 20 19  1  0
 21 20  1  0
 22 21  1  0
 22  5  1  6
 23 22  1  6
 23 14  1  0
 23 18  1  0
 15 24  1  1
 25  6  1  0
 25  5  1  0
 26 25  1  0
 27 26  1  0
 28 27  1  0
 26 29  1  1
 30 26  1  0
 20 31  1  6
M  END
$$$$
