
     RDKit          3D

 36 40  0  0  0  0  0  0  0  0999 V2000
    7.0570    6.6480   13.9370 N   0  0  0  0  0  0  0  0  0  0  0  0
    7.9020    6.9430   12.9360 C   0  0  0  0  0  0  0  0  0  0  0  0
    8.4780    8.1470   13.1640 N   0  0  0  0  0  0  0  0  0  0  0  0
    7.9870    8.6100   14.3320 C   0  0  0  0  0  0  0  0  0  0  0  0
    7.0970    7.6650   14.8090 C   0  0  0  0  0  0  0  0  0  0  0  0
    6.2560    5.4100   14.0510 C   0  0  0  0  0  0  0  0  0  0  0  0
    4.7550    5.6330   13.8730 C   0  0  1  0  0  0  0  0  0  0  0  0
    4.2650    6.5160   14.8720 O   0  0  0  0  0  0  0  0  0  0  0  0
    3.1210    7.1530   14.3050 C   0  0  2  0  0  0  0  0  0  0  0  0
    3.5980    7.4210   12.8970 C   0  0  0  0  0  0  0  0  0  0  0  0
    4.4520    6.2980   12.6320 O   0  0  0  0  0  0  0  0  0  0  0  0
    3.9320    4.3620   13.9850 C   0  0  0  0  0  0  0  0  0  0  0  0
    3.8400    3.3990   12.8580 C   0  0  0  0  0  0  0  0  0  0  0  0
    3.0560    2.2640   12.9800 C   0  0  0  0  0  0  0  0  0  0  0  0
    2.3620    2.0270   14.1530 C   0  0  0  0  0  0  0  0  0  0  0  0
    2.4250    2.9140   15.2250 C   0  0  0  0  0  0  0  0  0  0  0  0
    3.2110    4.0620   15.1400 C   0  0  0  0  0  0  0  0  0  0  0  0
    1.3630    0.5460   14.2450 Cl  0  0  0  0  0  0  0  0  0  0  0  0
    2.6910    8.3790   15.1070 C   0  0  0  0  0  0  0  0  0  0  0  0
    2.3880    7.9720   16.4460 O   0  0  0  0  0  0  0  0  0  0  0  0
    1.5400    6.9100   16.7070 C   0  0  0  0  0  0  0  0  0  0  0  0
    1.9650    5.9050   17.5790 C   0  0  0  0  0  0  0  0  0  0  0  0
    1.1500    4.8090   17.8660 C   0  0  0  0  0  0  0  0  0  0  0  0
   -0.1190    4.7140   17.2960 C   0  0  0  0  0  0  0  0  0  0  0  0
   -0.5550    5.7230   16.4320 C   0  0  0  0  0  0  0  0  0  0  0  0
    0.2670    6.8180   16.1340 C   0  0  0  0  0  0  0  0  0  0  0  0
   -0.9260    3.5960   17.6000 N   0  0  0  0  0  0  0  0  0  0  0  0
   -2.1400    3.3080   16.8440 C   0  0  0  0  0  0  0  0  0  0  0  0
   -2.0670    1.8320   16.4220 C   0  0  0  0  0  0  0  0  0  0  0  0
   -1.6970    0.9770   17.5600 N   0  0  0  0  0  0  0  0  0  0  0  0
   -1.6400    1.6570   18.8480 C   0  0  0  0  0  0  0  0  0  0  0  0
   -0.5280    2.7010   18.6860 C   0  0  0  0  0  0  0  0  0  0  0  0
   -1.3970   -0.3330   17.4220 C   0  0  0  0  0  0  0  0  0  0  0  0
   -1.2330   -1.1170   18.3480 O   0  0  0  0  0  0  0  0  0  0  0  0
   -1.2160   -0.8320   16.0260 C   0  0  0  0  0  0  0  0  0  0  0  0
    4.7140    3.6400   11.3160 Cl  0  0  0  0  0  0  0  0  0  0  0  0
  2  1  1  0
  3  2  1  0
  4  3  1  0
  5  4  1  0
  5  1  1  0
  6  1  1  0
  7  6  1  1
  8  7  1  0
  9  8  1  0
 10  9  1  0
 11 10  1  0
 11  7  1  0
 12  7  1  0
 13 12  1  0
 14 13  1  0
 15 14  1  0
 16 15  1  0
 17 16  1  0
 17 12  1  0
 18 15  1  0
  9 19  1  1
 20 19  1  0
 21 20  1  0
 22 21  1  0
 23 22  1  0
 24 23  1  0
 25 24  1  0
 26 25  1  0
 26 21  1  0
 27 24  1  0
 28 27  1  0
 29 28  1  0
 30 29  1  0
 31 30  1  0
 32 31  1  0
 32 27  1  0
 33 30  1  0
 34 33  1  0
 35 33  1  0
 36 13  1  0
M  END
$$$$
