
     RDKit          3D

 12 13  0  0  0  0  0  0  0  0999 V2000
   24.2440   15.0970   26.1640 C   0  0  0  0  0  0  0  0  0  0  0  0
   25.1790   15.2480   27.1440 C   0  0  0  0  0  0  0  0  0  0  0  0
   25.6100   14.1680   27.8670 C   0  0  1  0  0  0  0  0  0  0  0  0
   25.1330   12.9110   27.5970 C   0  0  0  0  0  0  0  0  0  0  0  0
   24.2130   12.7770   26.6080 C   0  0  0  0  0  0  0  0  0  0  0  0
   23.7420   13.8470   25.8890 C   0  0  0  0  0  0  0  0  0  0  0  0
   22.8110   13.6110   24.9180 C   0  0  0  0  0  0  0  0  0  0  0  0
   22.1550   14.5120   24.2160 C   0  0  0  0  0  0  0  0  0  0  0  0
   21.4020   13.8720   23.4190 N   0  0  0  0  0  0  0  0  0  0  0  0
   21.5250   12.6120   23.5840 C   0  0  0  0  0  0  0  0  0  0  0  0
   22.4330   12.4410   24.4880 N   0  0  0  0  0  0  0  0  0  0  0  0
   26.8150   14.3440   29.0550 Cl  0  0  0  0  0  0  0  0  0  0  0  0
  2  1  1  0
  3  2  1  0
  4  3  1  0
  5  4  1  0
  6  5  1  0
  6  1  1  0
  7  6  1  0
  8  7  1  0
  9  8  1  0
 10  9  1  0
 11 10  1  0
 11  7  1  0
  3 12  1  6
M  END
$$$$
