
     RDKit          3D

 28 29  0  0  0  0  0  0  0  0999 V2000
   55.8860   25.2540   49.5210 C   0  0  0  0  0  0  0  0  0  0  0  0
   54.9790   26.3300   49.3990 C   0  0  0  0  0  0  0  0  0  0  0  0
   53.6120   26.0590   49.5090 C   0  0  0  0  0  0  0  0  0  0  0  0
   58.1810   30.0720   49.0560 C   0  0  2  0  0  0  0  0  0  0  0  0
   57.0570   27.1210   49.2090 C   0  0  0  0  0  0  0  0  0  0  0  0
   55.7570   27.5230   49.1890 C   0  0  0  0  0  0  0  0  0  0  0  0
   55.2390   28.9160   48.9560 C   0  0  2  0  0  0  0  0  0  0  0  0
   55.4620   29.8340   50.1460 C   0  0  2  0  0  0  0  0  0  0  0  0
   54.8350   31.2310   50.0680 C   0  0  2  0  0  0  0  0  0  0  0  0
   57.1390   25.7660   49.3890 N   0  0  0  0  0  0  0  0  0  0  0  0
   55.4750   23.9460   49.7380 C   0  0  0  0  0  0  0  0  0  0  0  0
   53.2080   24.7670   49.7590 C   0  0  0  0  0  0  0  0  0  0  0  0
   54.1300   23.7260   49.8800 C   0  0  0  0  0  0  0  0  0  0  0  0
   55.5770   32.2010   49.8960 O   0  0  0  0  0  0  0  0  0  0  0  0
   53.6960   31.2770   50.2550 O   0  0  0  0  0  0  0  0  0  0  0  0
   57.1530   30.2060   50.5530 S   0  0  0  0  0  0  0  0  0  0  0  0
   52.9800   26.7580   49.4480 H   0  0  0  0  0  0  0  0  0  0  0  0
   59.0240   29.6610   49.2810 H   0  0  0  0  0  0  0  0  0  0  0  0
   58.3380   30.9530   48.6940 H   0  0  0  0  0  0  0  0  0  0  0  0
   57.7240   29.5310   48.4000 H   0  0  0  0  0  0  0  0  0  0  0  0
   57.7990   27.6760   49.0680 H   0  0  0  0  0  0  0  0  0  0  0  0
   54.2800   28.8720   48.7620 H   0  0  0  0  0  0  0  0  0  0  0  0
   55.6850   29.2950   48.1720 H   0  0  0  0  0  0  0  0  0  0  0  0
   55.0640   29.3930   50.9340 H   0  0  0  0  0  0  0  0  0  0  0  0
   57.8840   25.3070   49.4370 H   0  0  0  0  0  0  0  0  0  0  0  0
   56.1010   23.2480   49.8320 H   0  0  0  0  0  0  0  0  0  0  0  0
   52.2860   24.5760   49.8280 H   0  0  0  0  0  0  0  0  0  0  0  0
   53.8190   22.8490   50.0170 H   0  0  0  0  0  0  0  0  0  0  0  0
  2  1  1  0
  3  2  1  0
  6  5  1  0
  6  2  1  0
  7  6  1  0
  8  7  1  0
  9  8  1  0
 10  5  1  0
 10  1  1  0
 11  1  1  0
 12  3  1  0
 13 12  1  0
 13 11  1  0
  9 14  1  1
 15  9  1  0
 16  8  1  0
 16  4  1  0
 17  3  1  0
  4 18  1  1
 19  4  1  0
 20  4  1  0
 21  5  1  0
  7 22  1  6
 23  7  1  0
  8 24  1  1
 25 10  1  0
 26 11  1  0
 27 12  1  0
 28 13  1  0
M  END
$$$$
