
     RDKit          3D

  7  7  0  0  0  0  0  0  0  0999 V2000
  -13.7500    0.6660    1.7190 C   0  0  0  0  0  0  0  0  0  0  0  0
  -15.4370    2.2280    1.3450 C   0  0  0  0  0  0  0  0  0  0  0  0
  -14.1230   -0.0720    0.6250 C   0  0  0  0  0  0  0  0  0  0  0  0
  -15.8720    1.5330    0.2300 C   0  0  0  0  0  0  0  0  0  0  0  0
  -15.6330   -0.4110   -1.3190 C   0  0  0  0  0  0  0  0  0  0  0  0
  -14.3930    1.7800    2.0600 N   0  0  0  0  0  0  0  0  0  0  0  0
  -15.1910    0.3760   -0.1150 C   0  0  0  0  0  0  0  0  0  0  0  0
  3  1  1  0
  4  2  1  0
  6  2  1  0
  6  1  1  0
  7  5  1  0
  7  4  1  0
  7  3  1  0
M  END
$$$$
