
     RDKit          3D

 10 11  0  0  0  0  0  0  0  0999 V2000
    4.4040   35.3360   24.2230 C   0  0  0  0  0  0  0  0  0  0  0  0
    4.0410   36.3850   24.9380 C   0  0  0  0  0  0  0  0  0  0  0  0
    2.9310   36.3300   25.9380 C   0  0  2  0  0  0  0  0  0  0  0  0
    1.7810   37.2370   25.4950 C   0  0  0  0  0  0  0  0  0  0  0  0
    4.7150   37.7270   24.8050 C   0  0  0  0  0  0  0  0  0  0  0  0
    3.9640   38.6180   25.7920 C   0  0  0  0  0  0  0  0  0  0  0  0
    2.8600   37.7700   26.4270 C   0  0  2  0  0  0  0  0  0  0  0  0
    2.5070   37.9430   27.8990 C   0  0  2  0  0  0  0  0  0  0  0  0
    3.4490   37.1370   28.7850 C   0  0  0  0  0  0  0  0  0  0  0  0
    1.0540   37.5650   28.1600 C   0  0  0  0  0  0  0  0  0  0  0  0
  2  1  1  0
  3  2  1  0
  3  4  1  6
  5  2  1  0
  6  5  1  0
  7  4  1  6
  7  3  1  0
  7  6  1  0
  8  7  1  0
  8  9  1  1
 10  8  1  0
M  END
$$$$
