
     RDKit          3D

 10 11  0  0  0  0  0  0  0  0999 V2000
    4.4650   -7.1310  -20.8810 C   0  0  0  0  0  0  0  0  0  0  0  0
    5.2310   -6.0030  -20.1690 C   0  0  2  0  0  0  0  0  0  0  0  0
    5.5710   -4.7760  -21.0380 C   0  0  0  0  0  0  0  0  0  0  0  0
    6.1090   -6.3760  -18.9400 C   0  0  2  0  0  0  0  0  0  0  0  0
    5.9850   -7.8140  -18.3770 C   0  0  0  0  0  0  0  0  0  0  0  0
    4.8330   -5.5320  -18.7650 C   0  0  2  0  0  0  0  0  0  0  0  0
    3.5470   -6.1890  -18.2300 C   0  0  0  0  0  0  0  0  0  0  0  0
    3.6200   -7.6270  -17.6820 C   0  0  0  0  0  0  0  0  0  0  0  0
    5.0050   -7.9670  -17.2090 C   0  0  1  0  0  0  0  0  0  0  0  0
    4.9450   -9.3330  -16.5220 C   0  0  0  0  0  0  0  0  0  0  0  0
  2  1  1  6
  3  2  1  0
  4  2  1  0
  4  5  1  1
  6  2  1  0
  6  4  1  0
  6  7  1  1
  8  7  1  0
  9  8  1  0
  9  5  1  0
  9 10  1  6
M  END
$$$$
