
     RDKit          3D

 50 53  0  0  0  0  0  0  0  0999 V2000
   -7.5130  -41.8990   24.9090 C   0  0  0  0  0  0  0  0  0  0  0  0
   -7.4840  -42.9360   24.0440 C   0  0  0  0  0  0  0  0  0  0  0  0
   -8.6420  -42.6720   22.8590 S   0  0  0  0  0  0  0  0  0  0  0  0
   -9.0900  -41.1880   23.5820 C   0  0  0  0  0  0  0  0  0  0  0  0
   -8.4280  -40.8870   24.6550 N   0  0  0  0  0  0  0  0  0  0  0  0
   -6.5690  -44.1170   24.0610 C   0  0  0  0  0  0  0  0  0  0  0  0
   -6.9720  -45.1060   25.0340 O   0  0  0  0  0  0  0  0  0  0  0  0
   -7.4620  -46.2550   24.5330 C   0  0  0  0  0  0  0  0  0  0  0  0
   -7.6940  -46.4460   23.3580 O   0  0  0  0  0  0  0  0  0  0  0  0
   -7.6330  -47.1600   25.5100 N   0  0  0  0  0  0  0  0  0  0  0  0
   -8.0510  -48.5300   25.2310 C   0  0  2  0  0  0  0  0  0  0  0  0
   -9.0120  -49.0780   26.2920 C   0  0  2  0  0  0  0  0  0  0  0  0
  -10.2690  -48.2360   26.4520 C   0  0  0  0  0  0  0  0  0  0  0  0
  -11.1770  -48.1850   25.2270 C   0  0  2  0  0  0  0  0  0  0  0  0
   -6.8240  -49.4500   25.1850 C   0  0  0  0  0  0  0  0  0  0  0  0
   -5.7610  -49.0170   24.2050 C   0  0  0  0  0  0  0  0  0  0  0  0
   -5.9860  -49.0800   22.8390 C   0  0  0  0  0  0  0  0  0  0  0  0
   -5.0130  -48.6780   21.9400 C   0  0  0  0  0  0  0  0  0  0  0  0
   -3.8000  -48.2090   22.3960 C   0  0  0  0  0  0  0  0  0  0  0  0
   -3.5610  -48.1430   23.7510 C   0  0  0  0  0  0  0  0  0  0  0  0
   -4.5350  -48.5450   24.6490 C   0  0  0  0  0  0  0  0  0  0  0  0
   -8.3540  -49.1620   27.5570 O   0  0  0  0  0  0  0  0  0  0  0  0
  -12.2950  -47.1610   25.4580 C   0  0  0  0  0  0  0  0  0  0  0  0
  -11.8120  -45.7320   25.4760 C   0  0  0  0  0  0  0  0  0  0  0  0
  -11.0780  -45.2430   26.5460 C   0  0  0  0  0  0  0  0  0  0  0  0
  -10.6120  -43.9400   26.5480 C   0  0  0  0  0  0  0  0  0  0  0  0
  -10.8810  -43.1080   25.4850 C   0  0  0  0  0  0  0  0  0  0  0  0
  -11.6160  -43.5790   24.4200 C   0  0  0  0  0  0  0  0  0  0  0  0
  -12.0780  -44.8830   24.4140 C   0  0  0  0  0  0  0  0  0  0  0  0
  -11.7480  -49.5030   24.9630 N   0  0  0  0  0  0  0  0  0  0  0  0
  -12.8970  -51.8340   22.3510 N   0  0  0  0  0  0  0  0  0  0  0  0
  -12.8290  -51.2820   23.6980 C   0  0  2  0  0  0  0  0  0  0  0  0
  -12.2710  -49.8610   23.7860 C   0  0  0  0  0  0  0  0  0  0  0  0
  -12.3360  -49.1040   22.8210 O   0  0  0  0  0  0  0  0  0  0  0  0
  -12.1320  -52.2350   24.6940 C   0  0  1  0  0  0  0  0  0  0  0  0
  -12.7720  -53.6120   24.6680 C   0  0  0  0  0  0  0  0  0  0  0  0
  -10.6220  -52.3440   24.4680 C   0  0  0  0  0  0  0  0  0  0  0  0
  -11.8720  -51.8190   21.4730 C   0  0  0  0  0  0  0  0  0  0  0  0
  -12.0180  -52.6100   20.3770 N   0  0  0  0  0  0  0  0  0  0  0  0
  -10.9470  -52.6840   19.3950 C   0  0  0  0  0  0  0  0  0  0  0  0
  -10.8730  -51.1360   21.6450 O   0  0  0  0  0  0  0  0  0  0  0  0
   -9.7890  -53.3820   20.0480 C   0  0  0  0  0  0  0  0  0  0  0  0
   -9.7760  -54.6490   20.5320 C   0  0  0  0  0  0  0  0  0  0  0  0
   -8.2650  -54.9910   21.2710 S   0  0  0  0  0  0  0  0  0  0  0  0
   -7.7330  -53.3940   20.8730 C   0  0  0  0  0  0  0  0  0  0  0  0
   -8.6140  -52.6710   20.2400 N   0  0  0  0  0  0  0  0  0  0  0  0
   -6.3740  -52.8630   21.2290 C   0  0  1  0  0  0  0  0  0  0  0  0
   -6.1080  -53.1030   22.7060 C   0  0  0  0  0  0  0  0  0  0  0  0
   -5.3290  -53.5200   20.3430 C   0  0  0  0  0  0  0  0  0  0  0  0
  -13.2070  -53.4070   20.1140 C   0  0  0  0  0  0  0  0  0  0  0  0
  2  1  1  0
  3  2  1  0
  4  3  1  0
  5  4  1  0
  5  1  1  0
  6  2  1  0
  7  6  1  0
  8  7  1  0
  9  8  1  0
 10  8  1  0
 11 10  1  0
 12 11  1  0
 13 12  1  0
 14 13  1  1
 11 15  1  1
 16 15  1  0
 17 16  1  0
 18 17  1  0
 19 18  1  0
 20 19  1  0
 21 16  1  0
 21 20  1  0
 12 22  1  1
 23 14  1  0
 24 23  1  0
 25 24  1  0
 26 25  1  0
 27 26  1  0
 28 27  1  0
 29 24  1  0
 29 28  1  0
 30 14  1  0
 32 31  1  6
 33 32  1  0
 33 30  1  0
 34 33  1  0
 35 32  1  0
 35 36  1  6
 37 35  1  0
 38 31  1  0
 39 38  1  0
 40 39  1  0
 41 38  1  0
 42 40  1  0
 43 42  1  0
 44 43  1  0
 45 44  1  0
 46 45  1  0
 46 42  1  0
 47 45  1  0
 47 48  1  1
 49 47  1  0
 50 39  1  0
M  END
$$$$
