
     RDKit          3D

 25 28  0  0  0  0  0  0  0  0999 V2000
   -3.1790   -6.6570    0.2010 Cl  0  0  0  0  0  0  0  0  0  0  0  0
   -3.8740   -5.5430    1.4130 C   0  0  0  0  0  0  0  0  0  0  0  0
   -5.1770   -5.1040    1.1630 C   0  0  0  0  0  0  0  0  0  0  0  0
   -5.8050   -4.2330    2.0530 C   0  0  0  0  0  0  0  0  0  0  0  0
   -5.1220   -3.7780    3.1790 C   0  0  0  0  0  0  0  0  0  0  0  0
   -3.8150   -4.2260    3.4300 C   0  0  0  0  0  0  0  0  0  0  0  0
   -3.1700   -5.1130    2.5540 C   0  0  0  0  0  0  0  0  0  0  0  0
   -1.7410   -5.5480    2.8530 C   0  0  1  0  0  0  0  0  0  0  0  0
   -1.6780   -7.0580    2.7620 C   0  0  0  0  0  0  0  0  0  0  0  0
   -0.6330   -7.7000    2.1210 C   0  0  0  0  0  0  0  0  0  0  0  0
   -0.5750   -9.0920    2.0050 C   0  0  0  0  0  0  0  0  0  0  0  0
   -1.5810   -9.8530    2.5850 C   0  0  0  0  0  0  0  0  0  0  0  0
   -2.6390   -9.2250    3.2320 C   0  0  0  0  0  0  0  0  0  0  0  0
   -2.6950   -7.8410    3.3360 C   0  0  0  0  0  0  0  0  0  0  0  0
   -0.8050   -4.9460    1.8300 N   0  0  0  0  0  0  0  0  0  0  0  0
    0.5040   -4.9660    1.9820 C   0  0  0  0  0  0  0  0  0  0  0  0
    1.0070   -4.3960    0.8610 N   0  0  0  0  0  0  0  0  0  0  0  0
   -0.0060   -4.0270    0.0460 C   0  0  0  0  0  0  0  0  0  0  0  0
   -1.1950   -4.4140    0.6700 C   0  0  0  0  0  0  0  0  0  0  0  0
   -1.3260   -5.0510    4.2380 C   0  0  0  0  0  0  0  0  0  0  0  0
   -1.0130   -3.6900    4.4250 C   0  0  0  0  0  0  0  0  0  0  0  0
   -0.6330   -3.2260    5.6860 C   0  0  0  0  0  0  0  0  0  0  0  0
   -0.5790   -4.1050    6.7740 C   0  0  0  0  0  0  0  0  0  0  0  0
   -0.8900   -5.4630    6.6070 C   0  0  0  0  0  0  0  0  0  0  0  0
   -1.2610   -5.9220    5.3420 C   0  0  0  0  0  0  0  0  0  0  0  0
  2  1  1  0
  3  2  1  0
  4  3  1  0
  5  4  1  0
  6  5  1  0
  7  2  1  0
  7  6  1  0
  8  7  1  6
  9  8  1  0
 10  9  1  0
 11 10  1  0
 12 11  1  0
 13 12  1  0
 14 13  1  0
 14  9  1  0
 15  8  1  0
 16 15  1  0
 17 16  1  0
 18 17  1  0
 19 18  1  0
 19 15  1  0
 20  8  1  0
 21 20  1  0
 22 21  1  0
 23 22  1  0
 24 23  1  0
 25 24  1  0
 25 20  1  0
M  END
$$$$
