
     RDKit          3D

 38 37  0  0  0  0  0  0  0  0999 V2000
   68.0040   17.4140   88.4390 O   0  0  0  0  0  0  0  0  0  0  0  0
   68.1730   17.6670   90.0830 P   0  0  0  0  0  0  0  0  0  0  0  0
   69.4730   18.5660   90.6250 O   0  0  0  0  0  0  0  0  0  0  0  0
   66.6490   17.6920   91.0970 O   0  0  0  0  0  0  0  0  0  0  0  0
   65.8350   18.8620   91.0930 C   0  0  0  0  0  0  0  0  0  0  0  0
   64.3680   18.4710   91.2290 C   0  0  2  0  0  0  0  0  0  0  0  0
   63.9820   17.6030   90.0420 C   0  0  0  0  0  0  0  0  0  0  0  0
   63.5200   19.7390   91.2050 C   0  0  0  0  0  0  0  0  0  0  0  0
   64.1510   17.6630   92.5110 C   0  0  2  0  0  0  0  0  0  0  0  0
   62.9750   16.8490   92.4120 O   0  0  0  0  0  0  0  0  0  0  0  0
   64.0610   18.5550   93.7140 C   0  0  0  0  0  0  0  0  0  0  0  0
   65.1620   19.1980   94.1010 O   0  0  0  0  0  0  0  0  0  0  0  0
   62.9700   18.6920   94.3470 N   0  0  0  0  0  0  0  0  0  0  0  0
   61.6810   18.0740   94.0530 C   0  0  0  0  0  0  0  0  0  0  0  0
   60.6600   18.6930   94.9990 C   0  0  0  0  0  0  0  0  0  0  0  0
   59.9780   19.8700   94.3400 C   0  0  0  0  0  0  0  0  0  0  0  0
   60.7080   20.8850   93.8890 O   0  0  0  0  0  0  0  0  0  0  0  0
   58.7170   19.9010   94.2460 N   0  0  0  0  0  0  0  0  0  0  0  0
   57.8840   20.9400   93.6480 C   0  0  0  0  0  0  0  0  0  0  0  0
   57.5500   21.9220   94.7660 C   0  0  0  0  0  0  0  0  0  0  0  0
   56.0550   22.7950   94.4020 S   0  0  0  0  0  0  0  0  0  0  0  0
   56.1390   23.5630   92.8130 C   0  0  2  0  0  0  0  0  0  0  0  0
   57.3190   23.6720   92.2110 O   0  0  0  0  0  0  0  0  0  0  0  0
   54.9910   24.4510   92.3380 C   0  0  0  0  0  0  0  0  0  0  0  0
   53.6440   23.7390   92.3800 C   0  0  0  0  0  0  0  0  0  0  0  0
   52.6730   24.4570   93.3100 C   0  0  0  0  0  0  0  0  0  0  0  0
   51.6260   25.2480   92.5340 C   0  0  0  0  0  0  0  0  0  0  0  0
   50.2300   24.6780   92.7560 C   0  0  0  0  0  0  0  0  0  0  0  0
   49.1650   25.5570   92.1120 C   0  0  0  0  0  0  0  0  0  0  0  0
   48.4850   24.8500   90.9440 C   0  0  0  0  0  0  0  0  0  0  0  0
   47.8470   23.5340   91.3840 C   0  0  0  0  0  0  0  0  0  0  0  0
   48.3110   22.3530   90.9710 C   0  0  0  0  0  0  0  0  0  0  0  0
   49.5110   22.2360   90.0340 C   0  0  0  0  0  0  0  0  0  0  0  0
   49.5990   20.8410   89.4240 C   0  0  0  0  0  0  0  0  0  0  0  0
   50.9430   20.6150   88.7440 C   0  0  0  0  0  0  0  0  0  0  0  0
   51.2700   19.1290   88.6720 C   0  0  0  0  0  0  0  0  0  0  0  0
   51.7700   18.7410   87.2850 C   0  0  0  0  0  0  0  0  0  0  0  0
   51.9200   17.2400   87.1600 C   0  0  0  0  0  0  0  0  0  0  0  0
  2  1  1  0
  3  2  1  0
  4  2  1  0
  5  4  1  0
  6  5  1  0
  6  7  1  6
  8  6  1  0
  9  6  1  0
  9 10  1  6
 11  9  1  0
 12 11  1  0
 13 11  1  0
 14 13  1  0
 15 14  1  0
 16 15  1  0
 17 16  1  0
 18 16  1  0
 19 18  1  0
 20 19  1  0
 21 20  1  0
 22 21  1  0
 22 23  1  1
 24 22  1  0
 25 24  1  0
 26 25  1  0
 27 26  1  0
 28 27  1  0
 29 28  1  0
 30 29  1  0
 31 30  1  0
 32 31  1  0
 33 32  1  0
 34 33  1  0
 35 34  1  0
 36 35  1  0
 37 36  1  0
 38 37  1  0
M  END
$$$$
