
     RDKit          3D

 39 41  0  0  0  0  0  0  0  0999 V2000
  -19.7500    3.2560  -15.8220 C   0  0  0  0  0  0  0  0  0  0  0  0
  -19.8890    4.4890  -15.2060 C   0  0  2  0  0  0  0  0  0  0  0  0
  -18.8580    5.5740  -15.4040 C   0  0  1  0  0  0  0  0  0  0  0  0
  -18.9800    6.4750  -16.6110 C   0  0  0  0  0  0  0  0  0  0  0  0
  -17.8680    7.0980  -17.1360 C   0  0  0  0  0  0  0  0  0  0  0  0
  -18.0030    7.9470  -18.2120 C   0  0  0  0  0  0  0  0  0  0  0  0
  -22.6220    1.3600  -14.5380 N   0  0  0  0  0  0  0  0  0  0  0  0
  -21.7110    2.4310  -14.7400 C   0  0  0  0  0  0  0  0  0  0  0  0
  -24.4920    2.5990  -13.5580 O   0  0  0  0  0  0  0  0  0  0  0  0
  -19.1670    8.2610  -18.7590 N   0  0  0  0  0  0  0  0  0  0  0  0
  -21.8650    3.6470  -14.1050 C   0  0  0  0  0  0  0  0  0  0  0  0
  -24.5620    0.1190  -13.6580 O   0  0  0  0  0  0  0  0  0  0  0  0
  -20.9530    4.6600  -14.3340 C   0  0  0  0  0  0  0  0  0  0  0  0
  -20.1870    6.7270  -17.2250 C   0  0  0  0  0  0  0  0  0  0  0  0
  -20.6450    2.2320  -15.5910 C   0  0  0  0  0  0  0  0  0  0  0  0
  -23.1030    1.2630  -11.8590 C   0  0  0  0  0  0  0  0  0  0  0  0
  -22.7340    0.0470  -11.3150 C   0  0  0  0  0  0  0  0  0  0  0  0
  -22.1660    0.0230  -10.0550 C   0  0  0  0  0  0  0  0  0  0  0  0
  -21.9690    1.1920   -9.3580 C   0  0  0  0  0  0  0  0  0  0  0  0
  -22.3420    2.3940   -9.9090 C   0  0  0  0  0  0  0  0  0  0  0  0
  -22.9140    2.4410  -11.1640 C   0  0  0  0  0  0  0  0  0  0  0  0
  -20.2250    7.5950  -18.3000 C   0  0  0  0  0  0  0  0  0  0  0  0
  -23.8320    1.3340  -13.4510 S   0  0  1  0  0  0  0  0  0  0  0  0
  -19.0280    3.1140  -16.4110 H   0  0  0  0  0  0  0  0  0  0  0  0
  -18.8740    6.1460  -14.6050 H   0  0  0  0  0  0  0  0  0  0  0  0
  -17.9770    5.1410  -15.4460 H   0  0  0  0  0  0  0  0  0  0  0  0
  -17.0190    6.9370  -16.7530 H   0  0  0  0  0  0  0  0  0  0  0  0
  -17.2240    8.3290  -18.5820 H   0  0  0  0  0  0  0  0  0  0  0  0
  -22.5280    0.6610  -15.0350 H   0  0  0  0  0  0  0  0  0  0  0  0
  -22.5900    3.7860  -13.5190 H   0  0  0  0  0  0  0  0  0  0  0  0
  -21.0560    5.4850  -13.8870 H   0  0  0  0  0  0  0  0  0  0  0  0
  -20.9740    6.3090  -16.9090 H   0  0  0  0  0  0  0  0  0  0  0  0
  -20.5290    1.3980  -16.0140 H   0  0  0  0  0  0  0  0  0  0  0  0
  -22.8670   -0.7510  -11.7930 H   0  0  0  0  0  0  0  0  0  0  0  0
  -21.9130   -0.7980   -9.6730 H   0  0  0  0  0  0  0  0  0  0  0  0
  -21.5760    1.1680   -8.5000 H   0  0  0  0  0  0  0  0  0  0  0  0
  -22.2080    3.1900   -9.4290 H   0  0  0  0  0  0  0  0  0  0  0  0
  -23.1710    3.2630  -11.5400 H   0  0  0  0  0  0  0  0  0  0  0  0
  -21.0500    7.7250  -18.7380 H   0  0  0  0  0  0  0  0  0  0  0  0
  2  1  1  1
  3  2  1  0
  4  3  1  0
  5  4  1  0
  6  5  1  0
  8  7  1  0
 10  6  1  0
 11  8  1  0
 13 11  1  0
 13  2  1  0
 14  4  1  0
 15  8  1  0
 15  1  1  0
 17 16  1  0
 18 17  1  0
 19 18  1  0
 20 19  1  0
 21 16  1  0
 21 20  1  0
 22 14  1  0
 22 10  1  0
 23 16  1  0
 23 12  1  6
 23  9  1  0
 23  7  1  0
 24  1  1  0
  3 25  1  1
 26  3  1  0
 27  5  1  0
 28  6  1  0
 29  7  1  0
 30 11  1  0
 31 13  1  0
 32 14  1  0
 33 15  1  0
 34 17  1  0
 35 18  1  0
 36 19  1  0
 37 20  1  0
 38 21  1  0
 39 22  1  0
M  END
$$$$
