
     RDKit          3D

 28 31  0  0  0  0  0  0  0  0999 V2000
   58.7750   28.4840   76.5720 C   0  0  0  0  0  0  0  0  0  0  0  0
   59.3270   27.8650   77.8630 C   0  0  0  0  0  0  0  0  0  0  0  0
   60.4960   28.6400   78.4490 C   0  0  1  0  0  0  0  0  0  0  0  0
   60.5890   30.0760   78.2130 C   0  0  0  0  0  0  0  0  0  0  0  0
   59.5840   30.7140   77.5020 C   0  0  0  0  0  0  0  0  0  0  0  0
   59.6160   32.2460   77.4190 C   0  0  0  0  0  0  0  0  0  0  0  0
   59.4790   32.6060   75.8980 C   0  0  0  0  0  0  0  0  0  0  0  0
   58.1530   32.0990   75.3390 C   0  0  2  0  0  0  0  0  0  0  0  0
   58.2170   30.5500   75.3690 C   0  0  1  0  0  0  0  0  0  0  0  0
   58.4120   29.9910   76.8050 C   0  0  1  0  0  0  0  0  0  0  0  0
   56.9950   29.9060   74.6660 C   0  0  0  0  0  0  0  0  0  0  0  0
   56.7460   30.5020   73.2130 C   0  0  0  0  0  0  0  0  0  0  0  0
   56.6140   32.0650   73.2730 C   0  0  1  0  0  0  0  0  0  0  0  0
   57.9250   32.5940   73.8710 C   0  0  1  0  0  0  0  0  0  0  0  0
   57.8690   34.1270   73.6990 C   0  0  0  0  0  0  0  0  0  0  0  0
   57.1690   34.2810   72.3170 C   0  0  0  0  0  0  0  0  0  0  0  0
   56.6570   32.8440   71.9190 C   0  0  2  0  0  0  0  0  0  0  0  0
   55.3390   32.4820   74.0830 C   0  0  0  0  0  0  0  0  0  0  0  0
   57.1480   30.2160   77.6440 C   0  0  0  0  0  0  0  0  0  0  0  0
   55.3940   32.8810   71.0380 C   0  0  2  0  0  0  0  0  0  0  0  0
   55.0190   31.4580   70.5920 C   0  0  0  0  0  0  0  0  0  0  0  0
   55.6190   33.8550   69.8220 C   0  0  0  0  0  0  0  0  0  0  0  0
   54.2810   34.0800   69.0680 C   0  0  0  0  0  0  0  0  0  0  0  0
   54.3790   35.2990   68.1230 C   0  0  0  0  0  0  0  0  0  0  0  0
   53.1470   35.6320   67.2600 C   0  0  2  0  0  0  0  0  0  0  0  0
   52.7760   34.5060   66.2790 C   0  0  0  0  0  0  0  0  0  0  0  0
   53.4600   36.9490   66.4530 C   0  0  0  0  0  0  0  0  0  0  0  0
   61.3380   28.0520   79.1740 O   0  0  0  0  0  0  0  0  0  0  0  0
  2  1  1  0
  3  2  1  0
  4  3  1  0
  5  4  1  0
  6  5  1  0
  7  6  1  0
  8  7  1  6
  9  8  1  0
 10  9  1  0
 10  5  1  0
 10  1  1  0
  9 11  1  1
 12 11  1  0
 13 12  1  0
 14 13  1  0
 14  8  1  0
 14 15  1  1
 16 15  1  0
 17 13  1  0
 17 16  1  1
 13 18  1  1
 10 19  1  1
 20 17  1  0
 20 21  1  6
 22 20  1  0
 23 22  1  0
 24 23  1  0
 25 24  1  0
 25 26  1  6
 27 25  1  0
  3 28  1  1
M  END
$$$$
