
     RDKit          3D

 21 24  0  0  0  0  0  0  0  0999 V2000
   18.1890   38.6300   -2.4160 C   0  0  0  0  0  0  0  0  0  0  0  0
   18.8280   39.8500   -1.7220 C   0  0  1  0  0  0  0  0  0  0  0  0
   19.4270   40.9150   -3.9490 C   0  0  0  0  0  0  0  0  0  0  0  0
   20.5730   41.4610   -4.8460 C   0  0  0  0  0  0  0  0  0  0  0  0
   21.3500   42.5280   -4.0880 C   0  0  1  0  0  0  0  0  0  0  0  0
   21.9830   41.8510   -2.8740 C   0  0  1  0  0  0  0  0  0  0  0  0
   23.0910   42.8180   -2.3780 C   0  0  0  0  0  0  0  0  0  0  0  0
   23.6090   43.5010   -3.6640 C   0  0  0  0  0  0  0  0  0  0  0  0
   22.5850   43.1200   -4.7310 C   0  0  0  0  0  0  0  0  0  0  0  0
   20.4450   43.7310   -3.7720 C   0  0  0  0  0  0  0  0  0  0  0  0
   17.7580   40.9160   -1.5040 C   0  0  0  0  0  0  0  0  0  0  0  0
   17.2430   37.7880   -1.5380 C   0  0  0  0  0  0  0  0  0  0  0  0
   17.8410   37.5400   -0.1490 C   0  0  0  0  0  0  0  0  0  0  0  0
   18.9550   38.3800    0.3320 C   0  0  0  0  0  0  0  0  0  0  0  0
   19.3990   39.4670   -0.3550 C   0  0  2  0  0  0  0  0  0  0  0  0
   20.4260   40.3530    0.3440 C   0  0  0  0  0  0  0  0  0  0  0  0
   21.5110   40.8640   -0.6060 C   0  0  0  0  0  0  0  0  0  0  0  0
   20.9010   41.4010   -1.8960 C   0  0  2  0  0  0  0  0  0  0  0  0
   19.9590   40.3860   -2.6080 C   0  0  1  0  0  0  0  0  0  0  0  0
   17.4000   36.6720    0.6040 O   0  0  0  0  0  0  0  0  0  0  0  0
   22.7360   43.2710   -5.9470 O   0  0  0  0  0  0  0  0  0  0  0  0
  2  1  1  0
  4  3  1  0
  5  4  1  0
  6  5  1  0
  6  7  1  1
  8  7  1  0
  9  5  1  0
  9  8  1  0
  5 10  1  1
  2 11  1  1
 12  1  1  0
 13 12  1  0
 14 13  1  0
 15 14  1  1
 15  2  1  0
 16 15  1  0
 17 16  1  0
 18 17  1  1
 18  6  1  0
 19 18  1  0
 19  3  1  6
 19  2  1  0
 20 13  1  0
 21  9  1  0
M  END
$$$$
