
     RDKit          3D

 53 56  0  0  0  0  0  0  0  0999 V2000
    5.2090   21.4830   10.3390 C   0  0  0  0  0  0  0  0  0  0  0  0
    3.9950   21.1670   10.9310 C   0  0  0  0  0  0  0  0  0  0  0  0
    3.8680   21.3080   12.3030 C   0  0  0  0  0  0  0  0  0  0  0  0
    7.5640   24.4670    3.8700 C   0  0  2  0  0  0  0  0  0  0  0  0
    8.6250   24.4650    2.7710 C   0  0  1  0  0  0  0  0  0  0  0  0
    8.5810   23.2900    1.7920 C   0  0  1  0  0  0  0  0  0  0  0  0
    8.2070   21.9240    2.3690 C   0  0  2  0  0  0  0  0  0  0  0  0
    6.7210   23.1950    3.9280 C   0  0  1  0  0  0  0  0  0  0  0  0
    5.3770   21.3310    8.9670 C   0  0  0  0  0  0  0  0  0  0  0  0
    6.0420   22.0300   12.5040 C   0  0  0  0  0  0  0  0  0  0  0  0
    7.6010   21.9630    3.7730 C   0  0  1  0  0  0  0  0  0  0  0  0
    1.0290   21.2770    1.2690 C   0  0  2  0  0  0  0  0  0  0  0  0
    1.6370   21.4220    2.6620 C   0  0  2  0  0  0  0  0  0  0  0  0
    3.8350   20.6640    3.0610 C   0  0  0  0  0  0  0  0  0  0  0  0
    4.3840   20.8250    4.4830 C   0  0  0  0  0  0  0  0  0  0  0  0
    3.5780   20.9850    5.6070 C   0  0  0  0  0  0  0  0  0  0  0  0
    4.4560   21.0860    6.7230 C   0  0  0  0  0  0  0  0  0  0  0  0
    4.2710   21.2640    8.1180 C   0  0  0  0  0  0  0  0  0  0  0  0
    6.2570   21.9150   11.1400 C   0  0  0  0  0  0  0  0  0  0  0  0
    6.6650   21.2030    8.4370 C   0  0  0  0  0  0  0  0  0  0  0  0
    6.8440   21.0310    7.0720 C   0  0  0  0  0  0  0  0  0  0  0  0
    5.7200   20.9710    6.2100 C   0  0  0  0  0  0  0  0  0  0  0  0
    6.8260   20.6570    3.9960 C   0  0  2  0  0  0  0  0  0  0  0  0
    4.8740   21.7300   13.0470 N   0  0  0  0  0  0  0  0  0  0  0  0
    5.6610   20.8170    4.8580 N   0  0  0  0  0  0  0  0  0  0  0  0
    2.4860   20.3290    2.8870 O   0  0  0  0  0  0  0  0  0  0  0  0
    4.5290   20.8210    2.1140 O   0  0  0  0  0  0  0  0  0  0  0  0
    3.2810   20.8680   10.4170 H   0  0  0  0  0  0  0  0  0  0  0  0
    3.0580   21.1000   12.7090 H   0  0  0  0  0  0  0  0  0  0  0  0
    6.9710   25.2190    3.7210 H   0  0  0  0  0  0  0  0  0  0  0  0
    8.0100   24.5760    4.7250 H   0  0  0  0  0  0  0  0  0  0  0  0
    8.5220   25.2820    2.2590 H   0  0  0  0  0  0  0  0  0  0  0  0
    9.4950   24.4630    3.1990 H   0  0  0  0  0  0  0  0  0  0  0  0
    7.9340   23.5060    1.1030 H   0  0  0  0  0  0  0  0  0  0  0  0
    9.4610   23.2090    1.3910 H   0  0  0  0  0  0  0  0  0  0  0  0
    9.0090   21.3790    2.4010 H   0  0  0  0  0  0  0  0  0  0  0  0
    7.5630   21.5100    1.7740 H   0  0  0  0  0  0  0  0  0  0  0  0
    6.2610   23.1550    4.7820 H   0  0  0  0  0  0  0  0  0  0  0  0
    6.0660   23.2130    3.2130 H   0  0  0  0  0  0  0  0  0  0  0  0
    6.7340   22.3250   13.0490 H   0  0  0  0  0  0  0  0  0  0  0  0
    8.2830   22.0010    4.4620 H   0  0  0  0  0  0  0  0  0  0  0  0
    0.6140   22.0820    1.0220 H   0  0  0  0  0  0  0  0  0  0  0  0
    0.3930   20.5860    1.2750 H   0  0  0  0  0  0  0  0  0  0  0  0
    1.7070   21.0720    0.6510 H   0  0  0  0  0  0  0  0  0  0  0  0
    0.9540   21.4310    3.3060 H   0  0  0  0  0  0  0  0  0  0  0  0
    2.1290   22.2210    2.7110 H   0  0  0  0  0  0  0  0  0  0  0  0
    2.6500   21.0200    5.6260 H   0  0  0  0  0  0  0  0  0  0  0  0
    3.4130   21.3350    8.4670 H   0  0  0  0  0  0  0  0  0  0  0  0
    7.0840   22.1210   10.7710 H   0  0  0  0  0  0  0  0  0  0  0  0
    7.4030   21.2340    9.0000 H   0  0  0  0  0  0  0  0  0  0  0  0
    7.7010   20.9560    6.7220 H   0  0  0  0  0  0  0  0  0  0  0  0
    7.4240   20.0110    4.4030 H   0  0  0  0  0  0  0  0  0  0  0  0
    6.5290   20.3250    3.1340 H   0  0  0  0  0  0  0  0  0  0  0  0
  2  1  1  0
  3  2  1  0
  5  4  1  0
  6  5  1  0
  7  6  1  0
  8  4  1  0
  9  1  1  0
 11  8  1  0
 11  7  1  0
 13 12  1  0
 15 14  1  0
 16 15  1  0
 17 16  1  0
 18 17  1  0
 18  9  1  0
 19  1  1  0
 19 10  1  0
 20  9  1  0
 21 20  1  0
 22 17  1  0
 22 21  1  0
 23 11  1  0
 24  3  1  0
 24 10  1  0
 25 15  1  0
 25 23  1  0
 25 22  1  0
 26 14  1  0
 26 13  1  0
 27 14  1  0
 28  2  1  0
 29  3  1  0
  4 30  1  6
 31  4  1  0
  5 32  1  6
 33  5  1  0
  6 34  1  6
 35  6  1  0
  7 36  1  1
 37  7  1  0
  8 38  1  1
 39  8  1  0
 40 10  1  0
 11 41  1  1
 12 42  1  6
 43 12  1  0
 44 12  1  0
 13 45  1  1
 46 13  1  0
 47 16  1  0
 48 18  1  0
 49 19  1  0
 50 20  1  0
 51 21  1  0
 23 52  1  1
 53 23  1  0
M  END
$$$$
