
     RDKit          3D

 26 29  0  0  0  0  0  0  0  0999 V2000
  -25.3950  -20.0830   -1.2600 C   0  0  0  0  0  0  0  0  0  0  0  0
  -20.9800  -21.8610  -11.4670 C   0  0  0  0  0  0  0  0  0  0  0  0
  -21.2080  -21.9300  -12.8270 C   0  0  0  0  0  0  0  0  0  0  0  0
  -23.4100  -21.4910  -12.5520 C   0  0  0  0  0  0  0  0  0  0  0  0
  -23.2670  -21.4050  -11.1810 C   0  0  0  0  0  0  0  0  0  0  0  0
  -20.5150  -21.5270   -8.6090 C   0  0  0  0  0  0  0  0  0  0  0  0
  -20.2730  -21.4290   -7.2520 C   0  0  0  0  0  0  0  0  0  0  0  0
  -21.3700  -21.3050   -6.4040 C   0  0  0  0  0  0  0  0  0  0  0  0
  -20.2770  -21.1720   -4.1090 C   0  0  0  0  0  0  0  0  0  0  0  0
  -19.4090  -22.4300   -4.2080 C   0  0  1  0  0  0  0  0  0  0  0  0
  -17.9640  -22.1700   -3.7580 C   0  0  0  0  0  0  0  0  0  0  0  0
  -25.1850  -21.3950   -1.9080 C   0  0  0  0  0  0  0  0  0  0  0  0
  -17.6450  -23.3020   -2.7910 C   0  0  0  0  0  0  0  0  0  0  0  0
  -18.9540  -23.4560   -2.0830 C   0  0  0  0  0  0  0  0  0  0  0  0
  -19.8600  -23.5720   -3.2950 C   0  0  0  0  0  0  0  0  0  0  0  0
  -23.2840  -20.9550   -3.2810 C   0  0  0  0  0  0  0  0  0  0  0  0
  -22.7850  -21.0750   -4.6460 C   0  0  0  0  0  0  0  0  0  0  0  0
  -23.5510  -21.1380   -5.7800 C   0  0  0  0  0  0  0  0  0  0  0  0
  -22.6910  -21.2710   -6.9020 C   0  0  0  0  0  0  0  0  0  0  0  0
  -22.9050  -21.3680   -8.2770 C   0  0  0  0  0  0  0  0  0  0  0  0
  -21.8210  -21.5040   -9.1380 C   0  0  0  0  0  0  0  0  0  0  0  0
  -22.0270  -21.5990  -10.6070 C   0  0  0  0  0  0  0  0  0  0  0  0
  -22.4040  -21.7510  -13.3840 N   0  0  0  0  0  0  0  0  0  0  0  0
  -21.4320  -21.1950   -5.0240 N   0  0  0  0  0  0  0  0  0  0  0  0
  -24.5920  -21.2010   -3.2260 O   0  0  0  0  0  0  0  0  0  0  0  0
  -22.6030  -20.6940   -2.3180 O   0  0  0  0  0  0  0  0  0  0  0  0
  3  2  1  0
  5  4  1  0
  7  6  1  0
  8  7  1  0
 10  9  1  1
 11 10  1  0
 12  1  1  0
 13 11  1  0
 14 13  1  0
 15 14  1  0
 15 10  1  0
 17 16  1  0
 18 17  1  0
 19 18  1  0
 19  8  1  0
 20 19  1  0
 21 20  1  0
 21  6  1  0
 22  5  1  0
 22 21  1  0
 22  2  1  0
 23  4  1  0
 23  3  1  0
 24 17  1  0
 24  8  1  0
 24  9  1  0
 25 16  1  0
 25 12  1  0
 26 16  1  0
M  END
$$$$
