
     RDKit          3D

 22 23  0  0  0  0  0  0  0  0999 V2000
   17.2190    5.8910   63.1490 C   0  0  0  0  0  0  0  0  0  0  0  0
   15.8790    5.8430   63.4940 C   0  0  0  0  0  0  0  0  0  0  0  0
   15.5040    5.4030   64.7530 C   0  0  0  0  0  0  0  0  0  0  0  0
   14.0270    5.3550   65.1320 C   0  0  2  0  0  0  0  0  0  0  0  0
   13.3740    4.2460   64.4620 N   0  0  0  0  0  0  0  0  0  0  0  0
   16.4660    5.0120   65.6690 C   0  0  0  0  0  0  0  0  0  0  0  0
   17.8070    5.0600   65.3240 C   0  0  0  0  0  0  0  0  0  0  0  0
   18.1820    5.5010   64.0650 C   0  0  0  0  0  0  0  0  0  0  0  0
   19.5270    5.5450   63.7330 C   0  0  0  0  0  0  0  0  0  0  0  0
   20.4290    4.8660   64.4180 N   0  0  0  0  0  0  0  0  0  0  0  0
   21.7220    4.9900   64.0050 N   0  0  0  0  0  0  0  0  0  0  0  0
   21.7060    6.0360   62.6900 S   0  0  0  0  0  0  0  0  0  0  0  0
   20.0040    6.3120   62.6810 C   0  0  0  0  0  0  0  0  0  0  0  0
   17.4720    6.1840   62.3050 H   0  0  0  0  0  0  0  0  0  0  0  0
   15.2310    6.1060   62.8820 H   0  0  0  0  0  0  0  0  0  0  0  0
   13.6150    6.1590   64.8760 H   0  0  0  0  0  0  0  0  0  0  0  0
   13.9480    5.2470   66.0610 H   0  0  0  0  0  0  0  0  0  0  0  0
   12.8090    3.8720   65.0060 H   0  0  0  0  0  0  0  0  0  0  0  0
   12.9450    4.5420   63.7660 H   0  0  0  0  0  0  0  0  0  0  0  0
   16.2130    4.7180   66.5130 H   0  0  0  0  0  0  0  0  0  0  0  0
   18.4540    4.7960   65.9360 H   0  0  0  0  0  0  0  0  0  0  0  0
   19.5170    6.8510   62.1020 H   0  0  0  0  0  0  0  0  0  0  0  0
  2  1  1  0
  3  2  1  0
  4  3  1  0
  5  4  1  0
  6  3  1  0
  7  6  1  0
  8  7  1  0
  8  1  1  0
  9  8  1  0
 10  9  1  0
 11 10  1  0
 12 11  1  0
 13 12  1  0
 13  9  1  0
 14  1  1  0
 15  2  1  0
  4 16  1  6
 17  4  1  0
 18  5  1  0
 19  5  1  0
 20  6  1  0
 21  7  1  0
 22 13  1  0
M  END
$$$$
