
     RDKit          3D

 23 25  0  0  0  0  0  0  0  0999 V2000
   17.4520    4.9510   62.8690 C   0  0  0  0  0  0  0  0  0  0  0  0
   17.3290    5.6320   64.0740 C   0  0  0  0  0  0  0  0  0  0  0  0
   16.6420    5.0020   65.2660 C   0  0  0  0  0  0  0  0  0  0  0  0
   15.1490    4.8960   65.0610 C   0  0  0  0  0  0  0  0  0  0  0  0
   14.4140    3.8990   65.6800 C   0  0  0  0  0  0  0  0  0  0  0  0
   13.0580    3.8320   65.4480 C   0  0  0  0  0  0  0  0  0  0  0  0
   19.2520    7.4120   60.7750 N   0  0  0  0  0  0  0  0  0  0  0  0
   18.6000    6.8010   61.8780 C   0  0  0  0  0  0  0  0  0  0  0  0
   20.8040    7.5740   58.8850 O   0  0  0  0  0  0  0  0  0  0  0  0
   12.4070    4.6860   64.6620 N   0  0  0  0  0  0  0  0  0  0  0  0
   18.4770    7.5030   63.0620 C   0  0  0  0  0  0  0  0  0  0  0  0
   19.5640    5.4790   59.2730 O   0  0  0  0  0  0  0  0  0  0  0  0
   17.8500    6.9170   64.1460 C   0  0  0  0  0  0  0  0  0  0  0  0
   14.4840    5.7850   64.2370 C   0  0  0  0  0  0  0  0  0  0  0  0
   18.0790    5.5240   61.7780 C   0  0  0  0  0  0  0  0  0  0  0  0
   21.5860    6.0190   60.8030 C   0  0  0  0  0  0  0  0  0  0  0  0
   22.0230    6.7820   61.8730 C   0  0  0  0  0  0  0  0  0  0  0  0
   23.0610    6.3140   62.6620 C   0  0  0  0  0  0  0  0  0  0  0  0
   23.6460    5.0990   62.3950 C   0  0  0  0  0  0  0  0  0  0  0  0
   23.2050    4.3460   61.3310 C   0  0  0  0  0  0  0  0  0  0  0  0
   22.1730    4.7980   60.5260 C   0  0  0  0  0  0  0  0  0  0  0  0
   13.1240    5.6420   64.0730 C   0  0  0  0  0  0  0  0  0  0  0  0
   20.2700    6.6070   59.7940 S   0  0  2  0  0  0  0  0  0  0  0  0
  2  1  1  0
  3  2  1  0
  4  3  1  0
  5  4  1  0
  6  5  1  0
  8  7  1  0
 10  6  1  0
 11  8  1  0
 13 11  1  0
 13  2  1  0
 14  4  1  0
 15  1  1  0
 15  8  1  0
 17 16  1  0
 18 17  1  0
 19 18  1  0
 20 19  1  0
 21 16  1  0
 21 20  1  0
 22 10  1  0
 22 14  1  0
 23 12  1  6
 23  9  1  0
 23 16  1  0
 23  7  1  0
M  END
$$$$
