
     RDKit          3D

 43 45  0  0  0  0  0  0  0  0999 V2000
   23.9120    5.1420   54.6490 C   0  0  2  0  0  0  0  0  0  0  0  0
   22.8060    6.7550   56.7350 C   0  0  0  0  0  0  0  0  0  0  0  0
   22.0220    7.0840   57.8290 C   0  0  0  0  0  0  0  0  0  0  0  0
   22.2910    6.5240   59.0690 C   0  0  0  0  0  0  0  0  0  0  0  0
   21.4350    6.8950   60.2790 C   0  0  1  0  0  0  0  0  0  0  0  0
   19.2670    6.3470   61.3600 C   0  0  0  0  0  0  0  0  0  0  0  0
   18.6490    7.0650   63.5670 C   0  0  0  0  0  0  0  0  0  0  0  0
   17.1130    5.7110   65.0330 C   0  0  2  0  0  0  0  0  0  0  0  0
   15.6620    5.3240   64.7690 C   0  0  0  0  0  0  0  0  0  0  0  0
   14.8940    6.0480   63.8780 C   0  0  0  0  0  0  0  0  0  0  0  0
   13.5780    5.6520   63.6770 C   0  0  0  0  0  0  0  0  0  0  0  0
   13.7850    3.9140   65.1580 C   0  0  0  0  0  0  0  0  0  0  0  0
   15.1100    4.2380   65.4240 C   0  0  0  0  0  0  0  0  0  0  0  0
   18.4910    5.2120   61.5160 C   0  0  0  0  0  0  0  0  0  0  0  0
   23.3600    5.6490   59.2170 C   0  0  0  0  0  0  0  0  0  0  0  0
   23.8670    5.8780   56.8780 C   0  0  0  0  0  0  0  0  0  0  0  0
   19.3440    7.2710   62.3870 C   0  0  0  0  0  0  0  0  0  0  0  0
   17.8700    5.9300   63.7250 C   0  0  0  0  0  0  0  0  0  0  0  0
   17.7950    5.0070   62.6980 C   0  0  0  0  0  0  0  0  0  0  0  0
   24.1470    5.3250   58.1200 C   0  0  0  0  0  0  0  0  0  0  0  0
   20.0180    6.5760   60.1370 N   0  0  0  0  0  0  0  0  0  0  0  0
   13.0400    4.6160   64.3080 N   0  0  0  0  0  0  0  0  0  0  0  0
   24.6500    5.5590   55.7660 O   0  0  0  0  0  0  0  0  0  0  0  0
   23.1800    4.6280   54.9320 H   0  0  0  0  0  0  0  0  0  0  0  0
   24.4600    4.6250   54.0880 H   0  0  0  0  0  0  0  0  0  0  0  0
   23.6040    5.8940   54.1790 H   0  0  0  0  0  0  0  0  0  0  0  0
   22.6190    7.1240   55.9030 H   0  0  0  0  0  0  0  0  0  0  0  0
   21.3160    7.6810   57.7320 H   0  0  0  0  0  0  0  0  0  0  0  0
   21.7660    6.4330   61.0270 H   0  0  0  0  0  0  0  0  0  0  0  0
   21.5150    7.8190   60.4240 H   0  0  0  0  0  0  0  0  0  0  0  0
   18.7050    7.6880   64.2540 H   0  0  0  0  0  0  0  0  0  0  0  0
   17.5310    5.0230   65.5170 H   0  0  0  0  0  0  0  0  0  0  0  0
   17.1330    6.5040   65.5360 H   0  0  0  0  0  0  0  0  0  0  0  0
   15.2470    6.7780   63.4250 H   0  0  0  0  0  0  0  0  0  0  0  0
   13.0540    6.1310   63.0780 H   0  0  0  0  0  0  0  0  0  0  0  0
   13.4070    3.1820   65.5880 H   0  0  0  0  0  0  0  0  0  0  0  0
   15.6120    3.7390   66.0250 H   0  0  0  0  0  0  0  0  0  0  0  0
   18.4360    4.5890   60.8300 H   0  0  0  0  0  0  0  0  0  0  0  0
   23.5490    5.2820   60.0490 H   0  0  0  0  0  0  0  0  0  0  0  0
   19.8650    8.0340   62.2840 H   0  0  0  0  0  0  0  0  0  0  0  0
   17.2760    4.2440   62.8000 H   0  0  0  0  0  0  0  0  0  0  0  0
   24.8610    4.7380   58.2170 H   0  0  0  0  0  0  0  0  0  0  0  0
   19.6410    6.5250   59.3570 H   0  0  0  0  0  0  0  0  0  0  0  0
  3  2  1  0
  4  3  1  0
  5  4  1  0
  9  8  1  0
 10  9  1  0
 11 10  1  0
 13 12  1  0
 13  9  1  0
 14  6  1  0
 15  4  1  0
 16  2  1  0
 17  7  1  0
 17  6  1  0
 18  8  1  0
 18  7  1  0
 19 14  1  0
 19 18  1  0
 20 16  1  0
 20 15  1  0
 21  6  1  0
 21  5  1  0
 22 12  1  0
 22 11  1  0
 23  1  1  0
 23 16  1  0
  1 24  1  1
 25  1  1  0
 26  1  1  0
 27  2  1  0
 28  3  1  0
  5 29  1  1
 30  5  1  0
 31  7  1  0
  8 32  1  1
 33  8  1  0
 34 10  1  0
 35 11  1  0
 36 12  1  0
 37 13  1  0
 38 14  1  0
 39 15  1  0
 40 17  1  0
 41 19  1  0
 42 20  1  0
 43 21  1  0
M  END
$$$$
