
     RDKit          3D

 20 21  0  0  0  0  0  0  0  0999 V2000
  -12.7420    9.0700   -9.6820 C   0  0  0  0  0  0  0  0  0  0  0  0
  -11.5120    9.8600   -9.6320 C   0  0  0  0  0  0  0  0  0  0  0  0
  -10.2760    9.3320   -9.7560 C   0  0  2  0  0  0  0  0  0  0  0  0
   -9.9690    7.8450   -9.9410 C   0  0  0  0  0  0  0  0  0  0  0  0
   -8.7230    7.5950  -10.8210 C   0  0  0  0  0  0  0  0  0  0  0  0
   -7.5650    8.5700  -10.5440 C   0  0  0  0  0  0  0  0  0  0  0  0
   -8.0550    9.9980  -10.6680 C   0  0  1  0  0  0  0  0  0  0  0  0
   -9.1310   10.2650   -9.6220 C   0  0  1  0  0  0  0  0  0  0  0  0
   -9.4220   11.7580   -9.5470 C   0  0  0  0  0  0  0  0  0  0  0  0
   -8.0030   12.3080   -9.7610 C   0  0  0  0  0  0  0  0  0  0  0  0
   -7.1360   11.0750  -10.0680 C   0  0  2  0  0  0  0  0  0  0  0  0
   -8.4940   10.3390  -12.1050 C   0  0  0  0  0  0  0  0  0  0  0  0
   -5.7900   11.3050  -10.8320 C   0  0  2  0  0  0  0  0  0  0  0  0
   -4.6460   11.5370   -9.8510 C   0  0  0  0  0  0  0  0  0  0  0  0
   -5.7400   12.5570  -11.6810 C   0  0  0  0  0  0  0  0  0  0  0  0
   -4.7140   12.4370  -12.8230 C   0  0  0  0  0  0  0  0  0  0  0  0
   -4.5940   13.7040  -13.6500 C   0  0  0  0  0  0  0  0  0  0  0  0
   -3.6400   13.5710  -14.8090 C   0  0  1  0  0  0  0  0  0  0  0  0
   -4.2170   12.6710  -15.8870 C   0  0  0  0  0  0  0  0  0  0  0  0
   -3.3500   14.9280  -15.4740 C   0  0  0  0  0  0  0  0  0  0  0  0
  2  1  1  0
  3  2  1  1
  4  3  1  0
  5  4  1  0
  6  5  1  0
  7  6  1  0
  8  7  1  0
  8  3  1  0
  8  9  1  6
 10  9  1  0
 11  7  1  0
 11 10  1  6
  7 12  1  6
 13 11  1  0
 13 14  1  1
 15 13  1  0
 16 15  1  0
 17 16  1  0
 18 17  1  0
 18 19  1  6
 20 18  1  0
M  END
$$$$
