
     RDKit          3D

 29 31  0  0  0  0  0  0  0  0999 V2000
  -13.2340    5.6260  -13.7660 C   0  0  0  0  0  0  0  0  0  0  0  0
   -9.5640    9.6070  -10.3490 C   0  0  1  0  0  0  0  0  0  0  0  0
  -12.5190    6.9400  -13.5460 C   0  0  0  0  0  0  0  0  0  0  0  0
  -12.4260    7.7880  -14.7370 C   0  0  2  0  0  0  0  0  0  0  0  0
   -8.4040    7.0010  -10.7940 C   0  0  0  0  0  0  0  0  0  0  0  0
  -12.0180    7.2250  -12.3100 C   0  0  0  0  0  0  0  0  0  0  0  0
  -11.3110    8.4390  -11.8430 C   0  0  0  0  0  0  0  0  0  0  0  0
  -10.3350    8.4090  -10.8890 C   0  0  1  0  0  0  0  0  0  0  0  0
   -9.8580    7.0970  -10.3200 C   0  0  0  0  0  0  0  0  0  0  0  0
   -7.5500    8.2110  -10.3790 C   0  0  0  0  0  0  0  0  0  0  0  0
   -8.1450    9.5110  -10.9050 C   0  0  2  0  0  0  0  0  0  0  0  0
  -14.5610    5.8360  -14.5060 C   0  0  1  0  0  0  0  0  0  0  0  0
  -15.5160    6.4840  -13.6480 O   0  0  0  0  0  0  0  0  0  0  0  0
  -13.6740    7.9840  -15.5760 C   0  0  2  0  0  0  0  0  0  0  0  0
  -10.0200   11.0350  -10.6270 C   0  0  0  0  0  0  0  0  0  0  0  0
   -8.7120   11.8390  -10.4950 C   0  0  0  0  0  0  0  0  0  0  0  0
   -7.5710   10.8220  -10.3330 C   0  0  2  0  0  0  0  0  0  0  0  0
   -8.1820    9.5880  -12.4300 C   0  0  0  0  0  0  0  0  0  0  0  0
  -11.2800    8.3280  -15.1090 C   0  0  0  0  0  0  0  0  0  0  0  0
  -14.3520    6.6310  -15.8020 C   0  0  0  0  0  0  0  0  0  0  0  0
   -6.1710   11.2070  -10.9060 C   0  0  2  0  0  0  0  0  0  0  0  0
   -5.1090   11.2670   -9.7990 C   0  0  0  0  0  0  0  0  0  0  0  0
   -6.0800   12.4780  -11.7780 C   0  0  0  0  0  0  0  0  0  0  0  0
   -4.8900   12.4470  -12.7700 C   0  0  0  0  0  0  0  0  0  0  0  0
   -4.6780   13.7340  -13.5800 C   0  0  0  0  0  0  0  0  0  0  0  0
   -3.6810   13.6060  -14.7480 C   0  0  1  0  0  0  0  0  0  0  0  0
   -4.1690   12.6270  -15.7980 C   0  0  0  0  0  0  0  0  0  0  0  0
   -3.3280   14.9150  -15.4950 C   0  0  0  0  0  0  0  0  0  0  0  0
  -13.3440    8.6140  -16.8360 O   0  0  0  0  0  0  0  0  0  0  0  0
  3  1  1  0
  4  3  1  0
  6  3  1  0
  7  6  1  0
  8  7  1  6
  8  2  1  0
  9  8  1  0
  9  5  1  0
 10  5  1  0
 11 10  1  0
 11  2  1  0
 12  1  1  0
 12 13  1  1
 14  4  1  0
  2 15  1  6
 16 15  1  0
 17 11  1  0
 17 16  1  6
 11 18  1  6
  4 19  1  6
 20 14  1  0
 20 12  1  0
 21 17  1  0
 21 22  1  1
 23 21  1  0
 24 23  1  0
 25 24  1  0
 26 25  1  0
 26 27  1  6
 28 26  1  0
 14 29  1  6
M  END
$$$$
