
     RDKit          3D

  6  6  0  0  0  0  0  0  0  0999 V2000
  -15.3420   17.5860    4.3870 N   0  0  0  0  0  0  0  0  0  0  0  0
  -14.8510   16.4250    3.9260 N   0  0  0  0  0  0  0  0  0  0  0  0
  -13.6350   16.6440    3.4090 C   0  0  0  0  0  0  0  0  0  0  0  0
  -13.3580   17.9660    3.5580 C   0  0  2  0  0  0  0  0  0  0  0  0
  -11.5290   18.8520    3.0640 I   0  0  0  0  0  0  0  0  0  0  0  0
  -14.4360   18.5600    4.1570 C   0  0  0  0  0  0  0  0  0  0  0  0
  2  1  1  0
  3  2  1  0
  4  3  1  0
  4  5  1  1
  6  4  1  0
  6  1  1  0
M  END
$$$$
