
     RDKit          3D

 13 14  0  0  0  0  0  0  0  0999 V2000
   -7.1240   21.7810    5.2940 C   0  0  0  0  0  0  0  0  0  0  0  0
   -6.7030   21.9460    6.6050 C   0  0  2  0  0  0  0  0  0  0  0  0
   -7.2660   23.0220    7.4040 N   0  0  0  0  0  0  0  0  0  0  0  0
   -5.6260   21.1910    7.1040 C   0  0  0  0  0  0  0  0  0  0  0  0
   -5.0820   20.1900    6.3170 C   0  0  0  0  0  0  0  0  0  0  0  0
   -5.5280   19.9200    5.0080 C   0  0  0  0  0  0  0  0  0  0  0  0
   -6.5400   20.7380    4.5100 C   0  0  2  0  0  0  0  0  0  0  0  0
   -6.8720   20.4360    3.0940 C   0  0  0  0  0  0  0  0  0  0  0  0
   -8.1010   20.9520    2.5720 N   0  0  0  0  0  0  0  0  0  0  0  0
   -9.2160   20.7040    3.1470 N   0  0  0  0  0  0  0  0  0  0  0  0
  -10.1420   21.3690    2.4150 C   0  0  0  0  0  0  0  0  0  0  0  0
   -9.5820   21.8230    1.2390 N   0  0  0  0  0  0  0  0  0  0  0  0
   -8.2890   21.5750    1.3600 C   0  0  0  0  0  0  0  0  0  0  0  0
  2  1  1  0
  2  3  1  6
  4  2  1  0
  5  4  1  0
  6  5  1  0
  7  6  1  0
  7  1  1  0
  7  8  1  6
  9  8  1  0
 10  9  1  0
 11 10  1  0
 12 11  1  0
 13  9  1  0
 13 12  1  0
M  END
$$$$
