
     RDKit          3D

 27 30  0  0  0  0  0  0  0  0999 V2000
  -14.1110   16.7430    4.4670 O   0  0  0  0  0  0  0  0  0  0  0  0
  -14.7500   18.0150    4.2840 C   0  0  0  0  0  0  0  0  0  0  0  0
  -12.8450   16.5990    3.8680 C   0  0  0  0  0  0  0  0  0  0  0  0
  -12.1020   15.4160    4.1420 C   0  0  0  0  0  0  0  0  0  0  0  0
  -10.8680   15.2190    3.5360 C   0  0  0  0  0  0  0  0  0  0  0  0
  -10.3460   16.2180    2.7130 C   0  0  2  0  0  0  0  0  0  0  0  0
  -11.0870   17.4100    2.4130 C   0  0  0  0  0  0  0  0  0  0  0  0
  -12.3340   17.5840    3.0010 C   0  0  0  0  0  0  0  0  0  0  0  0
   -9.0140   15.9460    2.0560 C   0  0  2  0  0  0  0  0  0  0  0  0
   -7.9860   16.8680    1.6430 C   0  0  2  0  0  0  0  0  0  0  0  0
   -6.9770   16.0400    1.0490 C   0  0  0  0  0  0  0  0  0  0  0  0
   -7.4340   14.7790    1.1050 N   0  0  0  0  0  0  0  0  0  0  0  0
   -8.6270   14.7050    1.6940 N   0  0  0  0  0  0  0  0  0  0  0  0
   -7.9180   18.3770    1.8630 C   0  0  0  0  0  0  0  0  0  0  0  0
   -7.4180   18.7770    3.0610 C   0  0  0  0  0  0  0  0  0  0  0  0
   -7.3130   20.1300    3.3740 C   0  0  0  0  0  0  0  0  0  0  0  0
   -7.7410   21.0850    2.4520 C   0  0  0  0  0  0  0  0  0  0  0  0
   -8.2540   20.6720    1.2320 C   0  0  0  0  0  0  0  0  0  0  0  0
   -8.3400   19.3160    0.9170 C   0  0  0  0  0  0  0  0  0  0  0  0
   -6.7320   20.5330    4.7440 C   0  0  0  0  0  0  0  0  0  0  0  0
   -7.2580   21.6300    5.4250 C   0  0  0  0  0  0  0  0  0  0  0  0
   -6.7110   21.9670    6.6820 C   0  0  0  0  0  0  0  0  0  0  0  0
   -5.6600   21.2540    7.2250 C   0  0  0  0  0  0  0  0  0  0  0  0
   -5.1340   20.1670    6.5170 C   0  0  0  0  0  0  0  0  0  0  0  0
   -5.6750   19.8150    5.2720 C   0  0  0  0  0  0  0  0  0  0  0  0
   -7.2900   23.0590    7.4040 N   0  0  0  0  0  0  0  0  0  0  0  0
   -5.7290   16.5110    0.4970 N   0  0  0  0  0  0  0  0  0  0  0  0
  2  1  1  0
  3  1  1  0
  4  3  1  0
  5  4  1  0
  6  5  1  6
  7  6  1  0
  8  7  1  0
  8  3  1  0
  9  6  1  0
 10  9  1  0
 11 10  1  0
 12 11  1  0
 13 12  1  0
  9 13  1  6
 10 14  1  1
 15 14  1  0
 16 15  1  0
 17 16  1  0
 18 17  1  0
 19 18  1  0
 19 14  1  0
 20 16  1  0
 21 20  1  0
 22 21  1  0
 23 22  1  0
 24 23  1  0
 25 20  1  0
 25 24  1  0
 26 22  1  0
 27 11  1  0
M  END
$$$$
