
     RDKit          3D

 28 31  0  0  0  0  0  0  0  0999 V2000
   -7.4860   16.4240    2.8050 C   0  0  0  0  0  0  0  0  0  0  0  0
   -5.4580   13.4390    0.5000 C   0  0  0  0  0  0  0  0  0  0  0  0
   -4.7530   14.5360    0.9840 C   0  0  0  0  0  0  0  0  0  0  0  0
   -5.4120   15.5050    1.7300 C   0  0  0  0  0  0  0  0  0  0  0  0
   -9.4960   15.6930    4.0960 C   0  0  1  0  0  0  0  0  0  0  0  0
  -13.6810   17.6240    4.2610 C   0  0  0  0  0  0  0  0  0  0  0  0
  -15.0480   17.8820    4.2370 C   0  0  0  0  0  0  0  0  0  0  0  0
  -15.9520   16.8430    4.0380 C   0  0  0  0  0  0  0  0  0  0  0  0
  -15.4980   15.5460    3.8600 C   0  0  0  0  0  0  0  0  0  0  0  0
  -14.1350   15.2900    3.8900 C   0  0  0  0  0  0  0  0  0  0  0  0
  -10.2730   17.9170    2.8870 C   0  0  1  0  0  0  0  0  0  0  0  0
   -9.8310   19.0640    3.5360 C   0  0  0  0  0  0  0  0  0  0  0  0
   -9.5560   20.2150    2.8030 C   0  0  0  0  0  0  0  0  0  0  0  0
   -9.6970   20.2140    1.4200 C   0  0  0  0  0  0  0  0  0  0  0  0
  -10.3870   17.9100    1.5010 C   0  0  0  0  0  0  0  0  0  0  0  0
   -6.7700   15.3710    1.9980 C   0  0  0  0  0  0  0  0  0  0  0  0
   -7.4760   14.2770    1.5130 C   0  0  0  0  0  0  0  0  0  0  0  0
  -10.5300   16.6610    3.6520 C   0  0  1  0  0  0  0  0  0  0  0  0
   -6.8170   13.3090    0.7650 C   0  0  0  0  0  0  0  0  0  0  0  0
   -4.8160   12.4880   -0.2350 O   0  0  0  0  0  0  0  0  0  0  0  0
   -8.1530   15.8180    3.9420 N   0  0  0  0  0  0  0  0  0  0  0  0
   -9.9920   14.6500    4.7530 N   0  0  0  0  0  0  0  0  0  0  0  0
  -11.3870   14.8300    4.7620 N   0  0  0  0  0  0  0  0  0  0  0  0
  -11.7760   15.9700    4.1240 C   0  0  1  0  0  0  0  0  0  0  0  0
  -13.2230   16.3250    4.0640 C   0  0  2  0  0  0  0  0  0  0  0  0
  -10.1140   19.0600    0.7680 C   0  0  0  0  0  0  0  0  0  0  0  0
  -17.2880   17.0860    4.0180 O   0  0  0  0  0  0  0  0  0  0  0  0
   -9.4280   21.3390    0.7020 O   0  0  0  0  0  0  0  0  0  0  0  0
  3  2  1  0
  4  3  1  0
  7  6  1  0
  8  7  1  0
  9  8  1  0
 10  9  1  0
 11 12  1  6
 13 12  1  0
 14 13  1  0
 15 11  1  0
 16  1  1  0
 16  4  1  0
 17 16  1  0
 18  5  1  0
 18 11  1  6
 19 17  1  0
 19  2  1  0
 20  2  1  0
  5 21  1  1
 21  1  1  0
 22  5  1  0
 23 22  1  0
 24 23  1  1
 24 18  1  0
 25 24  1  0
 25 10  1  1
 25  6  1  0
 26 15  1  0
 26 14  1  0
 27  8  1  0
 28 14  1  0
M  END
$$$$
