
     RDKit          3D

 44 47  0  0  0  0  0  0  0  0999 V2000
   -5.4180   14.5780    2.9550 C   0  0  0  0  0  0  0  0  0  0  0  0
  -15.3410   14.3730    3.3200 C   0  0  0  0  0  0  0  0  0  0  0  0
  -17.6460   14.9250    3.8370 C   0  0  0  0  0  0  0  0  0  0  0  0
  -11.8000   17.2850    2.9560 C   0  0  0  0  0  0  0  0  0  0  0  0
  -11.0440   18.3830    2.4190 C   0  0  2  0  0  0  0  0  0  0  0  0
  -10.2460   20.6880    2.4000 C   0  0  0  0  0  0  0  0  0  0  0  0
   -9.6320   19.3030    0.6450 C   0  0  0  0  0  0  0  0  0  0  0  0
   -9.9980   15.5090    3.8230 C   0  0  0  0  0  0  0  0  0  0  0  0
   -7.4430   15.7940    3.9840 C   0  0  2  0  0  0  0  0  0  0  0  0
   -6.7420   15.0220    2.8490 C   0  0  0  0  0  0  0  0  0  0  0  0
   -7.4160   14.7040    1.6570 C   0  0  0  0  0  0  0  0  0  0  0  0
   -6.7590   13.9870    0.6330 C   0  0  0  0  0  0  0  0  0  0  0  0
   -4.8160   13.8580    1.8920 C   0  0  0  0  0  0  0  0  0  0  0  0
  -11.3600   16.0000    3.5580 C   0  0  0  0  0  0  0  0  0  0  0  0
  -12.5390   15.3160    3.8520 C   0  0  0  0  0  0  0  0  0  0  0  0
  -14.9790   15.7120    3.5880 C   0  0  0  0  0  0  0  0  0  0  0  0
  -16.6730   13.9840    3.4440 C   0  0  0  0  0  0  0  0  0  0  0  0
  -17.2790   16.2500    4.0980 C   0  0  0  0  0  0  0  0  0  0  0  0
  -15.9540   16.6500    3.9720 C   0  0  0  0  0  0  0  0  0  0  0  0
  -10.9920   19.6550    3.0140 C   0  0  0  0  0  0  0  0  0  0  0  0
  -10.3540   18.2240    1.1990 C   0  0  0  0  0  0  0  0  0  0  0  0
   -8.8090   16.2780    3.7240 N   0  0  0  0  0  0  0  0  0  0  0  0
   -5.4740   13.5660    0.7430 N   0  0  0  0  0  0  0  0  0  0  0  0
  -13.6460   16.0930    3.4650 N   0  0  0  0  0  0  0  0  0  0  0  0
  -13.1750   17.2800    2.9260 N   0  0  0  0  0  0  0  0  0  0  0  0
   -9.5690   20.5240    1.2250 N   0  0  0  0  0  0  0  0  0  0  0  0
   -9.8670   14.3140    4.1540 O   0  0  0  0  0  0  0  0  0  0  0  0
   -4.9030   14.7380    3.7110 H   0  0  0  0  0  0  0  0  0  0  0  0
  -14.6830   13.7690    3.0640 H   0  0  0  0  0  0  0  0  0  0  0  0
  -18.5340   14.6660    3.9220 H   0  0  0  0  0  0  0  0  0  0  0  0
  -10.1830   21.5350    2.7760 H   0  0  0  0  0  0  0  0  0  0  0  0
   -9.1630   19.2160   -0.1520 H   0  0  0  0  0  0  0  0  0  0  0  0
   -6.9130   16.5230    4.2490 H   0  0  0  0  0  0  0  0  0  0  0  0
   -7.4550   15.2720    4.7650 H   0  0  0  0  0  0  0  0  0  0  0  0
   -8.2990   14.9490    1.5030 H   0  0  0  0  0  0  0  0  0  0  0  0
   -7.1730   13.7660   -0.1680 H   0  0  0  0  0  0  0  0  0  0  0  0
   -3.9390   13.5520    1.9350 H   0  0  0  0  0  0  0  0  0  0  0  0
  -12.7160   14.4880    4.2350 H   0  0  0  0  0  0  0  0  0  0  0  0
  -16.9120   13.1040    3.2670 H   0  0  0  0  0  0  0  0  0  0  0  0
  -17.9170   16.8730    4.3570 H   0  0  0  0  0  0  0  0  0  0  0  0
  -15.6960   17.5270    4.1370 H   0  0  0  0  0  0  0  0  0  0  0  0
  -11.4430   19.8270    3.8080 H   0  0  0  0  0  0  0  0  0  0  0  0
  -10.3760   17.4070    0.7590 H   0  0  0  0  0  0  0  0  0  0  0  0
   -8.8750   17.1110    3.4900 H   0  0  0  0  0  0  0  0  0  0  0  0
  5  4  1  6
 10  9  1  0
 10  1  1  0
 11 10  1  0
 12 11  1  0
 13  1  1  0
 14  4  1  0
 14  8  1  0
 15 14  1  0
 16  2  1  0
 17  3  1  0
 17  2  1  0
 18  3  1  0
 19 18  1  0
 19 16  1  0
 20  5  1  0
 20  6  1  0
 21  5  1  0
 21  7  1  0
 22  9  1  0
 22  8  1  0
 23 12  1  0
 23 13  1  0
 24 16  1  0
 24 15  1  0
 25 24  1  0
 25  4  1  0
 26  7  1  0
 26  6  1  0
 27  8  1  0
 28  1  1  0
 29  2  1  0
 30  3  1  0
 31  6  1  0
 32  7  1  0
  9 33  1  1
 34  9  1  0
 35 11  1  0
 36 12  1  0
 37 13  1  0
 38 15  1  0
 39 17  1  0
 40 18  1  0
 41 19  1  0
 42 20  1  0
 43 21  1  0
 44 22  1  0
M  END
$$$$
