
     RDKit          3D

 26 28  0  0  0  0  0  0  0  0999 V2000
   -7.2000   15.4680    4.7030 C   0  0  0  0  0  0  0  0  0  0  0  0
   -6.8080   16.8570    4.2060 C   0  0  0  0  0  0  0  0  0  0  0  0
   -6.4970   17.0710    2.8540 C   0  0  0  0  0  0  0  0  0  0  0  0
   -6.1630   18.3400    2.3470 C   0  0  2  0  0  0  0  0  0  0  0  0
   -5.8320   18.4950    0.8790 C   0  0  0  0  0  0  0  0  0  0  0  0
   -7.1230   18.7010    0.1450 C   0  0  1  0  0  0  0  0  0  0  0  0
   -8.7550   20.2830    0.7050 C   0  0  0  0  0  0  0  0  0  0  0  0
   -9.6340   19.1310    1.2310 C   0  0  2  0  0  0  0  0  0  0  0  0
   -9.6590   19.1970    2.7790 C   0  0  0  0  0  0  0  0  0  0  0  0
  -10.7650   18.2700    3.1460 C   0  0  2  0  0  0  0  0  0  0  0  0
  -12.0200   18.8290    3.3940 C   0  0  0  0  0  0  0  0  0  0  0  0
  -13.0960   18.0200    3.7480 C   0  0  0  0  0  0  0  0  0  0  0  0
  -12.9040   16.6310    3.8920 C   0  0  0  0  0  0  0  0  0  0  0  0
  -11.6300   16.0800    3.6820 C   0  0  0  0  0  0  0  0  0  0  0  0
  -10.5610   16.9110    3.3270 C   0  0  0  0  0  0  0  0  0  0  0  0
   -8.1330   17.5610    0.3080 C   0  0  0  0  0  0  0  0  0  0  0  0
   -6.0650   19.4060    3.2450 C   0  0  0  0  0  0  0  0  0  0  0  0
   -6.3420   19.2480    4.6190 C   0  0  0  0  0  0  0  0  0  0  0  0
   -6.2630   20.4070    5.5970 C   0  0  0  0  0  0  0  0  0  0  0  0
   -6.7040   17.9680    5.0850 C   0  0  0  0  0  0  0  0  0  0  0  0
   -7.5910   20.0270    0.2030 N   0  0  0  0  0  0  0  0  0  0  0  0
   -9.3050   17.7640    0.7900 N   0  0  0  0  0  0  0  0  0  0  0  0
   -9.2100   21.5420    0.7590 O   0  0  0  0  0  0  0  0  0  0  0  0
  -13.9210   15.7830    4.2230 O   0  0  0  0  0  0  0  0  0  0  0  0
   -7.7820   16.3320   -0.0860 O   0  0  0  0  0  0  0  0  0  0  0  0
   -6.9780   17.7980    6.4200 O   0  0  0  0  0  0  0  0  0  0  0  0
  2  1  1  0
  3  2  1  0
  4  3  1  0
  4  5  1  1
  6  5  1  1
  8  7  1  0
  8  9  1  1
 10  9  1  1
 11 10  1  0
 12 11  1  0
 13 12  1  0
 14 13  1  0
 15 14  1  0
 15 10  1  0
 16  6  1  0
 17  4  1  0
 18 17  1  0
 19 18  1  0
 20 18  1  0
 20  2  1  0
 21  7  1  0
 21  6  1  0
 22 16  1  0
 22  8  1  0
 23  7  1  0
 24 13  1  0
 25 16  1  0
 26 20  1  0
M  END
$$$$
