
     RDKit          3D

 25 27  0  0  0  0  0  0  0  0999 V2000
  -10.0000   19.3020    2.8770 C   0  0  0  0  0  0  0  0  0  0  0  0
   -8.1000   17.7730    0.4970 C   0  0  0  0  0  0  0  0  0  0  0  0
   -7.1220   18.8890    0.3450 C   0  0  2  0  0  0  0  0  0  0  0  0
   -8.9370   20.4230    0.8370 C   0  0  0  0  0  0  0  0  0  0  0  0
   -5.9500   18.7800    1.2990 C   0  0  0  0  0  0  0  0  0  0  0  0
   -6.2780   18.5580    2.7910 C   0  0  0  0  0  0  0  0  0  0  0  0
   -6.3870   19.6070    3.6740 C   0  0  0  0  0  0  0  0  0  0  0  0
  -11.1650   18.3770    3.2340 C   0  0  0  0  0  0  0  0  0  0  0  0
   -6.6550   19.4580    5.0290 C   0  0  0  0  0  0  0  0  0  0  0  0
   -6.8550   18.1790    5.5030 C   0  0  0  0  0  0  0  0  0  0  0  0
   -6.7630   17.1380    4.6170 C   0  0  0  0  0  0  0  0  0  0  0  0
   -6.4730   17.2900    3.2890 C   0  0  0  0  0  0  0  0  0  0  0  0
  -12.4290   18.9020    3.3900 C   0  0  0  0  0  0  0  0  0  0  0  0
  -13.5210   18.1120    3.6800 C   0  0  0  0  0  0  0  0  0  0  0  0
  -13.3420   16.7550    3.7960 C   0  0  0  0  0  0  0  0  0  0  0  0
  -12.0970   16.2180    3.6540 C   0  0  0  0  0  0  0  0  0  0  0  0
  -11.0100   17.0100    3.3850 C   0  0  0  0  0  0  0  0  0  0  0  0
   -9.7800   19.3240    1.3500 C   0  0  1  0  0  0  0  0  0  0  0  0
   -6.7860   21.1310    6.3150 I   0  0  0  0  0  0  0  0  0  0  0  0
   -9.3190   18.0450    0.8790 N   0  0  0  0  0  0  0  0  0  0  0  0
   -7.7510   20.1800    0.4050 N   0  0  0  0  0  0  0  0  0  0  0  0
   -9.3580   21.5180    0.8540 O   0  0  0  0  0  0  0  0  0  0  0  0
   -7.7180   16.6750    0.2460 O   0  0  0  0  0  0  0  0  0  0  0  0
   -7.1200   17.9330    6.7910 O   0  0  0  0  0  0  0  0  0  0  0  0
  -14.3630   15.9410    4.0430 O   0  0  0  0  0  0  0  0  0  0  0  0
  3  2  1  0
  3  5  1  1
  6  5  1  0
  7  6  1  0
  8  1  1  0
  9  7  1  0
 10  9  1  0
 11 10  1  0
 12 11  1  0
 12  6  1  0
 13  8  1  0
 14 13  1  0
 15 14  1  0
 16 15  1  0
 17 16  1  0
 17  8  1  0
 18  4  1  0
 18  1  1  1
 19  9  1  0
 20 18  1  0
 20  2  1  0
 21  4  1  0
 21  3  1  0
 22  4  1  0
 23  2  1  0
 24 10  1  0
 25 15  1  0
M  END
$$$$
