
     RDKit          3D

 37 39  0  0  0  0  0  0  0  0999 V2000
  -11.1160   17.2930    3.3960 C   0  0  1  0  0  0  0  0  0  0  0  0
   -9.2130   18.9140    3.2920 N   0  0  0  0  0  0  0  0  0  0  0  0
   -8.5690   19.3910    4.3170 C   0  0  0  0  0  0  0  0  0  0  0  0
   -9.3450   17.1960    1.6840 C   0  0  0  0  0  0  0  0  0  0  0  0
  -13.4460   17.8540    3.5180 C   0  0  0  0  0  0  0  0  0  0  0  0
  -16.1440   17.0290    4.3990 C   0  0  0  0  0  0  0  0  0  0  0  0
  -17.4510   16.6230    4.5590 C   0  0  0  0  0  0  0  0  0  0  0  0
  -17.8070   15.3070    4.2850 C   0  0  0  0  0  0  0  0  0  0  0  0
  -16.8340   14.4350    3.8900 C   0  0  0  0  0  0  0  0  0  0  0  0
  -15.5250   14.8290    3.7070 C   0  0  1  0  0  0  0  0  0  0  0  0
  -15.1620   16.1260    3.9750 C   0  0  0  0  0  0  0  0  0  0  0  0
  -13.7440   16.5430    3.7930 C   0  0  0  0  0  0  0  0  0  0  0  0
  -12.7390   15.6080    3.8890 C   0  0  0  0  0  0  0  0  0  0  0  0
  -11.4340   15.9810    3.6820 C   0  0  0  0  0  0  0  0  0  0  0  0
   -9.6340   17.5590    3.1450 C   0  0  2  0  0  0  0  0  0  0  0  0
   -8.3210   20.6990    4.0580 C   0  0  0  0  0  0  0  0  0  0  0  0
   -9.3630   19.8640    2.3700 C   0  0  0  0  0  0  0  0  0  0  0  0
   -8.3450   16.4060    1.3470 C   0  0  0  0  0  0  0  0  0  0  0  0
  -12.1250   18.2450    3.2920 C   0  0  0  0  0  0  0  0  0  0  0  0
   -8.8140   20.9810    2.8650 N   0  0  0  0  0  0  0  0  0  0  0  0
  -19.1130   14.8790    4.4100 O   0  0  0  0  0  0  0  0  0  0  0  0
  -17.2760   12.7220    3.6200 Cl  0  0  0  0  0  0  0  0  0  0  0  0
   -8.3340   18.9250    5.0870 H   0  0  0  0  0  0  0  0  0  0  0  0
   -9.8920   17.5430    1.0160 H   0  0  0  0  0  0  0  0  0  0  0  0
  -14.1310   18.4780    3.4420 H   0  0  0  0  0  0  0  0  0  0  0  0
  -15.9180   17.9190    4.5430 H   0  0  0  0  0  0  0  0  0  0  0  0
  -18.1020   17.2390    4.8040 H   0  0  0  0  0  0  0  0  0  0  0  0
  -14.8790   14.2040    3.4670 H   0  0  0  0  0  0  0  0  0  0  0  0
  -12.9460   14.7200    4.0700 H   0  0  0  0  0  0  0  0  0  0  0  0
  -10.7590   15.3430    3.7310 H   0  0  0  0  0  0  0  0  0  0  0  0
   -9.1030   16.9920    3.7270 H   0  0  0  0  0  0  0  0  0  0  0  0
   -7.8870   21.2960    4.6250 H   0  0  0  0  0  0  0  0  0  0  0  0
   -9.7840   19.7720    1.5460 H   0  0  0  0  0  0  0  0  0  0  0  0
   -7.7900   16.0520    2.0040 H   0  0  0  0  0  0  0  0  0  0  0  0
   -8.1940   16.2040    0.4520 H   0  0  0  0  0  0  0  0  0  0  0  0
  -11.9210   19.1310    3.0950 H   0  0  0  0  0  0  0  0  0  0  0  0
  -19.6140   15.5430    4.5800 H   0  0  0  0  0  0  0  0  0  0  0  0
  3  2  1  0
  7  6  1  0
  8  7  1  0
  9  8  1  0
 10  9  1  0
 11 10  1  0
 11  6  1  0
 12 11  1  0
 12  5  1  0
 13 12  1  0
 14 13  1  0
  1 14  1  6
 15  1  1  0
 15  4  1  0
 15  2  1  0
 16  3  1  0
 17  2  1  0
 18  4  1  0
 19  5  1  0
 19  1  1  0
 20 17  1  0
 20 16  1  0
 21  8  1  0
 22  9  1  0
 23  3  1  0
 24  4  1  0
 25  5  1  0
 26  6  1  0
 27  7  1  0
 10 28  1  1
 29 13  1  0
 30 14  1  0
 15 31  1  1
 32 16  1  0
 33 17  1  0
 34 18  1  0
 35 18  1  0
 36 19  1  0
 37 21  1  0
M  END
$$$$
