
     RDKit          3D

 25 27  0  0  0  0  0  0  0  0999 V2000
   -8.7610   20.3620    0.7830 C   0  0  0  0  0  0  0  0  0  0  0  0
   -7.9410   17.6090    0.4560 C   0  0  0  0  0  0  0  0  0  0  0  0
   -7.4700   20.0380    0.2300 N   0  0  0  0  0  0  0  0  0  0  0  0
   -7.6600   16.4730    0.2270 O   0  0  0  0  0  0  0  0  0  0  0  0
  -12.1920   18.9240    3.3460 C   0  0  0  0  0  0  0  0  0  0  0  0
  -10.6960   17.0520    3.4640 C   0  0  0  0  0  0  0  0  0  0  0  0
   -5.7630   20.2150    2.8910 C   0  0  0  0  0  0  0  0  0  0  0  0
  -13.2640   18.0920    3.6550 C   0  0  0  0  0  0  0  0  0  0  0  0
  -11.7610   16.2170    3.7670 C   0  0  0  0  0  0  0  0  0  0  0  0
   -6.0070   20.6090    4.3400 C   0  0  0  0  0  0  0  0  0  0  0  0
   -9.6790   19.2730    1.3230 C   0  0  2  0  0  0  0  0  0  0  0  0
   -6.9120   18.6950    0.1490 C   0  0  1  0  0  0  0  0  0  0  0  0
   -6.2050   21.2970    6.9090 C   0  0  0  0  0  0  0  0  0  0  0  0
   -9.7650   19.3480    2.8610 C   0  0  0  0  0  0  0  0  0  0  0  0
   -5.6740   18.5740    1.0480 C   0  0  0  0  0  0  0  0  0  0  0  0
   -6.3750   17.9200    3.5100 C   0  0  0  0  0  0  0  0  0  0  0  0
   -6.5950   18.2610    4.7580 C   0  0  0  0  0  0  0  0  0  0  0  0
  -10.9120   18.4110    3.2420 C   0  0  0  0  0  0  0  0  0  0  0  0
   -5.9340   18.9710    2.5020 C   0  0  0  0  0  0  0  0  0  0  0  0
  -13.0510   16.7330    3.8550 C   0  0  0  0  0  0  0  0  0  0  0  0
   -6.3970   19.6940    5.2040 C   0  0  0  0  0  0  0  0  0  0  0  0
   -9.2390   17.9300    0.9820 N   0  0  0  0  0  0  0  0  0  0  0  0
   -9.1270   21.4880    0.7990 O   0  0  0  0  0  0  0  0  0  0  0  0
  -14.1360   15.9030    4.1520 O   0  0  0  0  0  0  0  0  0  0  0  0
   -6.6350   20.0100    6.5400 O   0  0  0  0  0  0  0  0  0  0  0  0
  3  1  1  0
  4  2  1  0
  8  5  1  0
  9  6  1  0
 10  7  1  0
 11  1  1  0
 12  3  1  0
 12  2  1  0
 11 14  1  1
 12 15  1  1
 17 16  1  0
 18  5  1  0
 18 14  1  0
 18  6  1  0
 19 16  1  0
 19 15  1  0
 19  7  1  0
 20  9  1  0
 20  8  1  0
 21 17  1  0
 21 10  1  0
 22 11  1  0
 22  2  1  0
 23  1  1  0
 24 20  1  0
 25 21  1  0
 25 13  1  0
M  END
$$$$
