
     RDKit          3D

 43 46  0  0  0  0  0  0  0  0999 V2000
   -9.3460   16.8900    2.5590 N   0  0  0  0  0  0  0  0  0  0  0  0
  -16.9800   13.4050    3.1920 C   0  0  0  0  0  0  0  0  0  0  0  0
  -11.5410   17.6590    3.1290 N   0  0  0  0  0  0  0  0  0  0  0  0
  -16.3320   15.6410    3.7750 C   0  0  0  0  0  0  0  0  0  0  0  0
  -17.6380   17.0680    4.9160 N   0  0  0  0  0  0  0  0  0  0  0  0
  -15.6160   16.8760    3.9690 C   0  0  0  0  0  0  0  0  0  0  0  0
  -14.2320   17.1870    3.5140 C   0  0  2  0  0  0  0  0  0  0  0  0
  -18.2390   13.5990    3.7980 C   0  0  0  0  0  0  0  0  0  0  0  0
   -9.6760   15.6990    3.0720 C   0  0  0  0  0  0  0  0  0  0  0  0
  -10.3020   17.8380    2.6190 C   0  0  0  0  0  0  0  0  0  0  0  0
   -8.8280   19.2610    1.2750 C   0  0  2  0  0  0  0  0  0  0  0  0
   -8.3820   20.6860    1.2370 C   0  0  1  0  0  0  0  0  0  0  0  0
  -10.2890   21.4740    2.1770 C   0  0  1  0  0  0  0  0  0  0  0  0
  -10.9610   20.1460    2.2390 C   0  0  1  0  0  0  0  0  0  0  0  0
  -16.4610   17.7070    4.6370 C   0  0  0  0  0  0  0  0  0  0  0  0
  -17.6230   15.8290    4.3250 C   0  0  2  0  0  0  0  0  0  0  0  0
  -18.6120   14.8410    4.3050 C   0  0  0  0  0  0  0  0  0  0  0  0
  -16.0050   14.3900    3.2050 C   0  0  0  0  0  0  0  0  0  0  0  0
  -13.2230   16.2180    4.1260 C   0  0  2  0  0  0  0  0  0  0  0  0
  -11.8410   16.4380    3.6050 C   0  0  0  0  0  0  0  0  0  0  0  0
  -10.9150   15.4270    3.5890 C   0  0  0  0  0  0  0  0  0  0  0  0
  -10.0050   19.0540    2.1170 N   0  0  0  0  0  0  0  0  0  0  0  0
   -9.4720   21.5510    1.0220 O   0  0  0  0  0  0  0  0  0  0  0  0
  -16.7980   12.5820    2.7670 H   0  0  0  0  0  0  0  0  0  0  0  0
  -18.2940   17.3980    5.3940 H   0  0  0  0  0  0  0  0  0  0  0  0
  -14.0020   18.1030    3.7700 H   0  0  0  0  0  0  0  0  0  0  0  0
  -14.1880   17.1310    2.5370 H   0  0  0  0  0  0  0  0  0  0  0  0
  -18.8380   12.8760    3.8610 H   0  0  0  0  0  0  0  0  0  0  0  0
   -9.0240   15.0160    3.0770 H   0  0  0  0  0  0  0  0  0  0  0  0
   -8.0960   18.7100    1.6130 H   0  0  0  0  0  0  0  0  0  0  0  0
   -9.0350   18.9700    0.3650 H   0  0  0  0  0  0  0  0  0  0  0  0
   -7.9490   20.9160    2.0850 H   0  0  0  0  0  0  0  0  0  0  0  0
   -7.7270   20.8040    0.5170 H   0  0  0  0  0  0  0  0  0  0  0  0
  -10.9640   22.1840    2.1500 H   0  0  0  0  0  0  0  0  0  0  0  0
   -9.7390   21.6040    2.9780 H   0  0  0  0  0  0  0  0  0  0  0  0
  -11.4350   20.0650    3.0890 H   0  0  0  0  0  0  0  0  0  0  0  0
  -11.6150   20.0830    1.5160 H   0  0  0  0  0  0  0  0  0  0  0  0
  -16.2680   18.6000    4.8780 H   0  0  0  0  0  0  0  0  0  0  0  0
  -19.4850   15.0100    4.6190 H   0  0  0  0  0  0  0  0  0  0  0  0
  -15.1470   14.2310    2.8440 H   0  0  0  0  0  0  0  0  0  0  0  0
  -13.5000   15.2970    3.9290 H   0  0  0  0  0  0  0  0  0  0  0  0
  -13.2220   16.3270    5.1010 H   0  0  0  0  0  0  0  0  0  0  0  0
  -11.1310   14.5730    3.9250 H   0  0  0  0  0  0  0  0  0  0  0  0
  6  4  1  0
  7  6  1  0
  8  2  1  0
  9  1  1  0
 10  3  1  0
 10  1  1  0
 12 11  1  0
 14 13  1  0
 15  5  1  0
 15  6  1  0
 16  5  1  0
 16  4  1  0
 16 17  1  1
 17  8  1  0
 18  2  1  0
 18  4  1  0
 19  7  1  0
 20 19  1  0
 20  3  1  0
 21 20  1  0
 21  9  1  0
 22 14  1  0
 22 11  1  0
 22 10  1  0
 23 13  1  0
 23 12  1  0
 24  2  1  0
 25  5  1  0
  7 26  1  6
 27  7  1  0
 28  8  1  0
 29  9  1  0
 11 30  1  1
 31 11  1  0
 12 32  1  1
 33 12  1  0
 13 34  1  6
 35 13  1  0
 14 36  1  1
 37 14  1  0
 38 15  1  0
 39 17  1  0
 40 18  1  0
 19 41  1  1
 42 19  1  0
 43 21  1  0
M  END
$$$$
