
     RDKit          3D

 43 46  0  0  0  0  0  0  0  0999 V2000
   -9.2790   15.6890    0.7990 C   0  0  1  0  0  0  0  0  0  0  0  0
   -7.0240   16.2630    1.8670 C   0  0  0  0  0  0  0  0  0  0  0  0
  -12.0960   16.7560    2.9770 N   0  0  0  0  0  0  0  0  0  0  0  0
  -11.0870   20.2950    2.8400 C   0  0  0  0  0  0  0  0  0  0  0  0
   -5.2190   18.2360    2.4790 N   0  0  0  0  0  0  0  0  0  0  0  0
   -5.8320   16.3320    1.1840 C   0  0  0  0  0  0  0  0  0  0  0  0
  -11.5220   17.9790    2.7520 C   0  0  0  0  0  0  0  0  0  0  0  0
   -6.6920   19.0530    4.0540 N   0  0  0  0  0  0  0  0  0  0  0  0
  -10.3130   16.3610    1.6520 C   0  0  0  0  0  0  0  0  0  0  0  0
   -9.9930   20.0770    2.0030 C   0  0  0  0  0  0  0  0  0  0  0  0
   -4.9590   17.3370    1.5230 C   0  0  0  0  0  0  0  0  0  0  0  0
   -6.4120   18.1320    3.1000 C   0  0  0  0  0  0  0  0  0  0  0  0
   -7.9240   19.0920    4.8290 C   0  0  2  0  0  0  0  0  0  0  0  0
   -7.6060   19.1770    6.3010 C   0  0  2  0  0  0  0  0  0  0  0  0
   -5.5140   20.0720    5.9070 C   0  0  2  0  0  0  0  0  0  0  0  0
   -5.7590   20.1070    4.4270 C   0  0  2  0  0  0  0  0  0  0  0  0
  -10.3930   17.7640    1.9270 C   0  0  0  0  0  0  0  0  0  0  0  0
   -9.6150   18.8510    1.5390 C   0  0  0  0  0  0  0  0  0  0  0  0
  -11.8660   19.2370    3.2400 C   0  0  0  0  0  0  0  0  0  0  0  0
  -11.3620   15.7980    2.3200 C   0  0  0  0  0  0  0  0  0  0  0  0
   -8.0410   15.1860    1.5780 C   0  0  2  0  0  0  0  0  0  0  0  0
   -7.3250   17.1650    2.8210 N   0  0  0  0  0  0  0  0  0  0  0  0
   -6.7320   20.2500    6.6170 O   0  0  0  0  0  0  0  0  0  0  0  0
   -8.9140   21.5490    1.4890 Br  0  0  0  0  0  0  0  0  0  0  0  0
   -9.6950   14.9270    0.3450 H   0  0  0  0  0  0  0  0  0  0  0  0
   -8.9820   16.3190    0.1110 H   0  0  0  0  0  0  0  0  0  0  0  0
  -12.8120   16.6070    3.4590 H   0  0  0  0  0  0  0  0  0  0  0  0
  -11.2890   21.1610    3.1280 H   0  0  0  0  0  0  0  0  0  0  0  0
   -5.6280   15.7080    0.5070 H   0  0  0  0  0  0  0  0  0  0  0  0
   -4.1370   17.3970    1.0620 H   0  0  0  0  0  0  0  0  0  0  0  0
   -8.4480   18.2860    4.6530 H   0  0  0  0  0  0  0  0  0  0  0  0
   -8.4560   19.8670    4.5630 H   0  0  0  0  0  0  0  0  0  0  0  0
   -7.1910   18.3370    6.5870 H   0  0  0  0  0  0  0  0  0  0  0  0
   -8.4400   19.2910    6.8020 H   0  0  0  0  0  0  0  0  0  0  0  0
   -4.8860   20.7820    6.1530 H   0  0  0  0  0  0  0  0  0  0  0  0
   -5.1150   19.2110    6.1530 H   0  0  0  0  0  0  0  0  0  0  0  0
   -6.1280   20.9760    4.1750 H   0  0  0  0  0  0  0  0  0  0  0  0
   -4.9150   19.9830    3.9510 H   0  0  0  0  0  0  0  0  0  0  0  0
   -8.8670   18.7440    0.9860 H   0  0  0  0  0  0  0  0  0  0  0  0
  -12.6000   19.3570    3.8190 H   0  0  0  0  0  0  0  0  0  0  0  0
  -11.5620   14.8750    2.3340 H   0  0  0  0  0  0  0  0  0  0  0  0
   -7.6090   14.4740    1.0600 H   0  0  0  0  0  0  0  0  0  0  0  0
   -8.3390   14.7970    2.4280 H   0  0  0  0  0  0  0  0  0  0  0  0
  6  2  1  0
  7  3  1  0
  9  1  1  0
 10  4  1  0
 11  6  1  0
 11  5  1  0
 12  8  1  0
 12  5  1  0
 13  8  1  0
 14 13  1  0
 16  8  1  0
 16 15  1  0
 17  7  1  0
 17  9  1  0
 18 17  1  0
 18 10  1  0
 19  7  1  0
 19  4  1  0
 20  3  1  0
 20  9  1  0
 21  2  1  0
 21  1  1  0
 22  2  1  0
 22 12  1  0
 23 15  1  0
 23 14  1  0
 24 10  1  0
  1 25  1  6
 26  1  1  0
 27  3  1  0
 28  4  1  0
 29  6  1  0
 30 11  1  0
 13 31  1  1
 32 13  1  0
 14 33  1  1
 34 14  1  0
 15 35  1  6
 36 15  1  0
 16 37  1  6
 38 16  1  0
 39 18  1  0
 40 19  1  0
 41 20  1  0
 21 42  1  6
 43 21  1  0
M  END
$$$$
