
     RDKit          3D

 22 24  0  0  0  0  0  0  0  0999 V2000
  -16.9510   -4.2080   67.8460 O   0  0  0  0  0  0  0  0  0  0  0  0
  -17.0960   -2.8500   67.4040 C   0  0  1  0  0  0  0  0  0  0  0  0
  -16.9380   -1.9320   68.6540 C   0  0  0  0  0  0  0  0  0  0  0  0
  -15.9830   -2.5480   66.3790 C   0  0  0  0  0  0  0  0  0  0  0  0
  -18.5370   -2.6850   66.7860 C   0  0  0  0  0  0  0  0  0  0  0  0
  -15.5810   -2.0330   69.2360 N   0  0  0  0  0  0  0  0  0  0  0  0
  -15.2040   -2.7320   70.3240 C   0  0  0  0  0  0  0  0  0  0  0  0
  -14.4060   -1.4040   68.7540 N   0  0  0  0  0  0  0  0  0  0  0  0
  -13.9070   -2.5540   70.5040 N   0  0  0  0  0  0  0  0  0  0  0  0
  -13.4240   -1.7510   69.5550 C   0  0  0  0  0  0  0  0  0  0  0  0
  -16.1180   -3.3700   65.1910 N   0  0  0  0  0  0  0  0  0  0  0  0
  -15.9260   -4.6900   65.0740 C   0  0  0  0  0  0  0  0  0  0  0  0
  -16.4840   -2.9070   63.9180 N   0  0  0  0  0  0  0  0  0  0  0  0
  -16.1550   -5.0180   63.8370 N   0  0  0  0  0  0  0  0  0  0  0  0
  -16.4920   -3.9390   63.1340 C   0  0  0  0  0  0  0  0  0  0  0  0
  -19.4230   -3.8020   66.7540 C   0  0  0  0  0  0  0  0  0  0  0  0
  -19.0080   -1.4230   66.2390 C   0  0  0  0  0  0  0  0  0  0  0  0
  -20.7230   -3.6800   66.2060 C   0  0  0  0  0  0  0  0  0  0  0  0
  -21.1710   -2.4430   65.6770 C   0  0  0  0  0  0  0  0  0  0  0  0
  -22.4240   -2.3370   65.1550 F   0  0  0  0  0  0  0  0  0  0  0  0
  -20.3140   -1.3210   65.6940 C   0  0  0  0  0  0  0  0  0  0  0  0
  -18.2280   -0.3310   66.2370 F   0  0  0  0  0  0  0  0  0  0  0  0
  2  1  1  1
  3  2  1  0
  4  2  1  0
  5  2  1  0
  6  3  1  0
  7  6  1  0
  8  6  1  0
  9  7  1  0
 10  9  1  0
 10  8  1  0
 11  4  1  0
 12 11  1  0
 13 11  1  0
 14 12  1  0
 15 13  1  0
 15 14  1  0
 16  5  1  0
 17  5  1  0
 18 16  1  0
 19 18  1  0
 20 19  1  0
 21 19  1  0
 21 17  1  0
 22 17  1  0
M  END
$$$$
