
     RDKit          3D

 21 24  0  0  0  0  0  0  0  0999 V2000
  -16.1820   -2.5080   69.3260 C   0  0  1  0  0  0  0  0  0  0  0  0
  -17.1460   -3.3600   70.1650 C   0  0  0  0  0  0  0  0  0  0  0  0
  -18.4800   -3.5400   69.3820 C   0  0  0  0  0  0  0  0  0  0  0  0
  -19.1080   -2.1770   69.1350 C   0  0  2  0  0  0  0  0  0  0  0  0
  -19.5150   -1.5890   70.5350 C   0  0  0  0  0  0  0  0  0  0  0  0
  -20.4070   -2.1390   68.2850 C   0  0  1  0  0  0  0  0  0  0  0  0
  -21.5720   -2.5540   69.0260 O   0  0  0  0  0  0  0  0  0  0  0  0
  -20.4710   -0.6520   67.8200 C   0  0  2  0  0  0  0  0  0  0  0  0
  -20.8160   -0.5730   66.4430 O   0  0  0  0  0  0  0  0  0  0  0  0
  -19.0550   -0.0130   68.1180 C   0  0  0  0  0  0  0  0  0  0  0  0
  -18.1660   -1.2830   68.2650 C   0  0  1  0  0  0  0  0  0  0  0  0
  -16.7960   -1.1140   68.9450 C   0  0  2  0  0  0  0  0  0  0  0  0
  -15.7960   -0.3440   68.0290 C   0  0  0  0  0  0  0  0  0  0  0  0
  -14.4260   -0.1270   68.7000 C   0  0  0  0  0  0  0  0  0  0  0  0
  -14.0070   -1.1780   69.7030 C   0  0  0  0  0  0  0  0  0  0  0  0
  -12.7500   -1.0190   70.3460 C   0  0  0  0  0  0  0  0  0  0  0  0
  -12.3020   -1.9700   71.2890 C   0  0  0  0  0  0  0  0  0  0  0  0
  -11.0980   -1.8110   71.8990 O   0  0  0  0  0  0  0  0  0  0  0  0
  -13.1050   -3.0890   71.6010 C   0  0  0  0  0  0  0  0  0  0  0  0
  -14.3550   -3.2540   70.9670 C   0  0  0  0  0  0  0  0  0  0  0  0
  -14.8100   -2.3050   70.0220 C   0  0  0  0  0  0  0  0  0  0  0  0
  1  2  1  1
  3  2  1  0
  4  3  1  0
  4  5  1  1
  6  4  1  0
  6  7  1  1
  8  6  1  0
  8  9  1  6
 10  8  1  0
 11 10  1  1
 11  4  1  0
 12 11  1  0
 12  1  1  0
 12 13  1  6
 14 13  1  0
 15 14  1  0
 16 15  1  0
 17 16  1  0
 18 17  1  0
 19 17  1  0
 20 19  1  0
 21 15  1  0
 21  1  1  0
 21 20  1  0
M  END
$$$$
