
     RDKit          3D

 18 19  0  0  0  0  0  0  0  0999 V2000
  -16.9180   -2.7230   69.7420 O   0  0  0  0  0  0  0  0  0  0  0  0
  -16.1220   -1.9140   69.3080 C   0  0  0  0  0  0  0  0  0  0  0  0
  -15.6730   -0.7940   70.1960 C   0  0  2  0  0  0  0  0  0  0  0  0
  -15.9750    0.5730   69.5270 C   0  0  0  0  0  0  0  0  0  0  0  0
  -17.4920    0.7700   69.3510 C   0  0  0  0  0  0  0  0  0  0  0  0
  -13.7970   -1.9780   71.4230 C   0  0  0  0  0  0  0  0  0  0  0  0
  -14.1810   -0.9930   70.4840 C   0  0  0  0  0  0  0  0  0  0  0  0
  -11.8250   -0.4360   70.1360 C   0  0  0  0  0  0  0  0  0  0  0  0
  -11.4550   -1.4210   71.0770 C   0  0  0  0  0  0  0  0  0  0  0  0
  -15.6120   -1.9800   68.0410 N   0  0  0  0  0  0  0  0  0  0  0  0
  -15.9220   -2.9490   67.0860 C   0  0  0  0  0  0  0  0  0  0  0  0
  -16.8510   -4.0000   67.3350 C   0  0  0  0  0  0  0  0  0  0  0  0
  -12.4430   -2.1910   71.7180 C   0  0  0  0  0  0  0  0  0  0  0  0
  -17.1040   -4.9030   66.3450 C   0  0  0  0  0  0  0  0  0  0  0  0
  -16.4760   -4.7860   65.1570 N   0  0  0  0  0  0  0  0  0  0  0  0
  -15.5980   -3.8230   64.8740 C   0  0  0  0  0  0  0  0  0  0  0  0
  -13.1810   -0.2200   69.8370 C   0  0  0  0  0  0  0  0  0  0  0  0
  -15.2920   -2.8740   65.8240 C   0  0  0  0  0  0  0  0  0  0  0  0
  2  1  1  0
  3  2  1  0
  3  4  1  6
  5  4  1  0
  7  3  1  0
  7  6  1  0
  9  8  1  0
 10  2  1  0
 11 10  1  0
 12 11  1  0
 13  9  1  0
 13  6  1  0
 14 12  1  0
 15 14  1  0
 16 15  1  0
 17  8  1  0
 17  7  1  0
 18 16  1  0
 18 11  1  0
M  END
$$$$
