
     RDKit          3D

 15 17  0  0  0  0  0  0  0  0999 V2000
  -11.0280    7.1520    9.8740 C   0  0  0  0  0  0  0  0  0  0  0  0
  -10.2830    8.2030   10.4000 C   0  0  0  0  0  0  0  0  0  0  0  0
  -13.0450    8.1800   10.7500 C   0  0  0  0  0  0  0  0  0  0  0  0
  -10.8900    9.2690   11.1110 C   0  0  0  0  0  0  0  0  0  0  0  0
  -12.4210    7.1390   10.0490 C   0  0  0  0  0  0  0  0  0  0  0  0
  -12.3140    9.2590   11.2950 C   0  0  0  0  0  0  0  0  0  0  0  0
  -10.1280   10.3280   11.6410 C   0  0  0  0  0  0  0  0  0  0  0  0
  -10.7990   11.3480   12.3380 C   0  0  0  0  0  0  0  0  0  0  0  0
   -8.7740   10.4500   11.5380 N   0  0  0  0  0  0  0  0  0  0  0  0
  -12.1830   11.3560   12.5200 C   0  0  0  0  0  0  0  0  0  0  0  0
  -12.7440   12.4280   13.2360 C   0  0  0  0  0  0  0  0  0  0  0  0
  -12.9650   10.3110   12.0030 C   0  0  0  0  0  0  0  0  0  0  0  0
  -14.1240   12.4910   13.4640 C   0  0  0  0  0  0  0  0  0  0  0  0
  -14.9310   11.4680   12.9620 C   0  0  0  0  0  0  0  0  0  0  0  0
  -14.3570   10.4030   12.2470 C   0  0  0  0  0  0  0  0  0  0  0  0
  2  1  1  0
  4  2  1  0
  5  3  1  0
  5  1  1  0
  6  3  1  0
  6  4  1  0
  7  4  1  0
  8  7  1  0
  9  7  1  0
 10  8  1  0
 11 10  1  0
 12  6  1  0
 12 10  1  0
 13 11  1  0
 14 13  1  0
 15 12  1  0
 15 14  1  0
M  END
$$$$
