
     RDKit          3D

 36 41  0  0  0  0  0  0  0  0999 V2000
  -10.7800    9.6190   12.5880 N   0  0  0  0  0  0  0  0  0  0  0  0
  -10.8130   10.6480   11.7090 C   0  0  0  0  0  0  0  0  0  0  0  0
   -9.5950   10.9590   11.2490 N   0  0  0  0  0  0  0  0  0  0  0  0
   -8.7760   10.0800   11.8640 C   0  0  0  0  0  0  0  0  0  0  0  0
   -9.4510    9.2510   12.6810 C   0  0  0  0  0  0  0  0  0  0  0  0
  -11.8590    8.9820   13.3260 C   0  0  0  0  0  0  0  0  0  0  0  0
  -12.0030    9.5750   14.7400 C   0  0  1  0  0  0  0  0  0  0  0  0
  -10.6860   10.0700   15.2200 O   0  0  0  0  0  0  0  0  0  0  0  0
  -10.9140   11.6980   15.3870 C   0  0  2  0  0  0  0  0  0  0  0  0
  -12.3530   11.7660   15.4500 C   0  0  2  0  0  0  0  0  0  0  0  0
  -12.8290   10.6490   14.5730 O   0  0  0  0  0  0  0  0  0  0  0  0
  -12.9920    8.7270   15.5910 C   0  0  0  0  0  0  0  0  0  0  0  0
  -12.7810    7.4660   16.1160 C   0  0  0  0  0  0  0  0  0  0  0  0
  -13.7590    6.8310   16.9150 C   0  0  0  0  0  0  0  0  0  0  0  0
  -14.9770    7.5520   17.1430 C   0  0  0  0  0  0  0  0  0  0  0  0
  -15.2120    8.7800   16.6130 C   0  0  0  0  0  0  0  0  0  0  0  0
  -14.2690    9.3350   15.8740 C   0  0  0  0  0  0  0  0  0  0  0  0
  -16.2290    6.9500   18.1100 Cl  0  0  0  0  0  0  0  0  0  0  0  0
  -11.3880   12.4780   14.0430 C   0  0  1  0  0  0  0  0  0  0  0  0
  -12.1730   13.5700   14.7190 O   0  0  0  0  0  0  0  0  0  0  0  0
  -13.8720   13.3400   14.2690 C   0  0  2  0  0  0  0  0  0  0  0  0
  -14.3280   13.7580   13.0400 C   0  0  0  0  0  0  0  0  0  0  0  0
  -15.6930   13.3910   12.7100 C   0  0  0  0  0  0  0  0  0  0  0  0
  -16.5060   12.6910   13.6650 C   0  0  0  0  0  0  0  0  0  0  0  0
  -15.9820   12.5010   14.9420 C   0  0  0  0  0  0  0  0  0  0  0  0
  -14.6900   12.8940   15.2940 C   0  0  0  0  0  0  0  0  0  0  0  0
  -17.8450   12.2160   13.2430 N   0  0  0  0  0  0  0  0  0  0  0  0
  -18.8000   13.1950   12.5980 C   0  0  0  0  0  0  0  0  0  0  0  0
  -20.2230   12.6800   12.4410 C   0  0  0  0  0  0  0  0  0  0  0  0
  -20.8460   12.1890   13.4920 N   0  0  0  0  0  0  0  0  0  0  0  0
  -19.7910   10.6440   13.7660 C   0  0  0  0  0  0  0  0  0  0  0  0
  -18.4140   10.8180   13.1050 C   0  0  0  0  0  0  0  0  0  0  0  0
  -22.1940   12.0210   13.5750 C   0  0  0  0  0  0  0  0  0  0  0  0
  -22.6850   10.9390   13.8820 O   0  0  0  0  0  0  0  0  0  0  0  0
  -23.0810   13.1770   13.2850 C   0  0  0  0  0  0  0  0  0  0  0  0
  -11.2960    6.6330   15.8180 Cl  0  0  0  0  0  0  0  0  0  0  0  0
  2  1  1  0
  3  2  1  0
  4  3  1  0
  5  4  1  0
  5  1  1  0
  6  1  1  0
  7  6  1  6
  8  7  1  0
  9  8  1  6
 10  9  1  0
 11  7  1  0
 10 11  1  6
 12  7  1  0
 13 12  1  0
 14 13  1  0
 15 14  1  0
 16 15  1  0
 17 12  1  0
 17 16  1  0
 18 15  1  0
 19 10  1  0
 19  9  1  0
 19 20  1  1
 21 20  1  1
 22 21  1  0
 23 22  1  0
 24 23  1  0
 25 24  1  0
 26 25  1  0
 26 21  1  0
 27 24  1  0
 28 27  1  0
 29 28  1  0
 30 29  1  0
 31 30  1  0
 32 31  1  0
 32 27  1  0
 33 30  1  0
 34 33  1  0
 35 33  1  0
 36 13  1  0
M  END
$$$$
