
     RDKit          3D

 20 20  0  0  0  0  0  0  0  0999 V2000
    2.8930   13.5650    4.0810 O   0  0  0  0  0  0  0  0  0  0  0  0
    3.3290   13.8910    5.2040 C   0  0  0  0  0  0  0  0  0  0  0  0
    4.5520   14.2720    5.4290 O   0  0  0  0  0  0  0  0  0  0  0  0
    2.3550   13.8230    6.3770 C   0  0  0  0  0  0  0  0  0  0  0  0
    2.7360   14.2890    7.6300 C   0  0  0  0  0  0  0  0  0  0  0  0
    1.8620   14.2290    8.7090 C   0  0  0  0  0  0  0  0  0  0  0  0
    0.6010   13.6640    8.5790 C   0  0  1  0  0  0  0  0  0  0  0  0
   -0.3500   13.6470    9.7600 C   0  0  1  0  0  0  0  0  0  0  0  0
   -0.9520   15.0480    9.9580 C   0  0  2  0  0  0  0  0  0  0  0  0
    0.2130   13.2210    7.3120 C   0  0  0  0  0  0  0  0  0  0  0  0
    1.0720   13.2910    6.2210 C   0  0  0  0  0  0  0  0  0  0  0  0
    3.5960   14.6510    7.7520 H   0  0  0  0  0  0  0  0  0  0  0  0
    2.1410   14.5430    9.5510 H   0  0  0  0  0  0  0  0  0  0  0  0
   -1.0650   12.9990    9.5990 H   0  0  0  0  0  0  0  0  0  0  0  0
    0.1370   13.3820   10.5700 H   0  0  0  0  0  0  0  0  0  0  0  0
   -1.6210   15.0180   10.6620 H   0  0  0  0  0  0  0  0  0  0  0  0
   -1.3650   15.3450    9.1300 H   0  0  0  0  0  0  0  0  0  0  0  0
   -0.2480   15.6700   10.2070 H   0  0  0  0  0  0  0  0  0  0  0  0
   -0.6500   12.8590    7.1960 H   0  0  0  0  0  0  0  0  0  0  0  0
    0.7970   12.9580    5.3860 H   0  0  0  0  0  0  0  0  0  0  0  0
  2  1  1  0
  3  2  1  0
  4  2  1  0
  5  4  1  0
  6  5  1  0
  7  6  1  6
  8  7  1  0
  9  8  1  0
 10  7  1  0
 11 10  1  0
 11  4  1  0
 12  5  1  0
 13  6  1  0
  8 14  1  6
 15  8  1  0
  9 16  1  1
 17  9  1  0
 18  9  1  0
 19 10  1  0
 20 11  1  0
M  END
$$$$
