
     RDKit          3D

 22 22  0  0  0  0  0  0  0  0999 V2000
   -7.0980    2.4970    8.9420 O   0  0  0  0  0  0  0  0  0  0  0  0
   -7.5610    2.7260    7.7900 C   0  0  2  0  0  0  0  0  0  0  0  0
   -8.7750    2.7030    7.4910 O   0  0  0  0  0  0  0  0  0  0  0  0
   -6.5600    2.8440    6.6750 C   0  0  2  0  0  0  0  0  0  0  0  0
   -6.9680    3.1480    5.3650 C   0  0  0  0  0  0  0  0  0  0  0  0
   -6.0340    3.2210    4.3440 C   0  0  0  0  0  0  0  0  0  0  0  0
   -6.2990    3.5370    3.0300 O   0  0  0  0  0  0  0  0  0  0  0  0
   -7.6490    3.7190    2.6190 C   0  0  2  0  0  0  0  0  0  0  0  0
   -4.6680    2.9960    4.6440 C   0  0  2  0  0  0  0  0  0  0  0  0
   -3.8190    3.0500    3.5860 O   0  0  0  0  0  0  0  0  0  0  0  0
   -2.4950    2.5760    3.8020 C   0  0  2  0  0  0  0  0  0  0  0  0
   -4.2780    2.6660    5.9360 C   0  0  0  0  0  0  0  0  0  0  0  0
   -5.2260    2.5890    6.9430 C   0  0  0  0  0  0  0  0  0  0  0  0
   -7.8750    3.3140    5.1800 H   0  0  0  0  0  0  0  0  0  0  0  0
   -8.1420    2.8960    2.7600 H   0  0  0  0  0  0  0  0  0  0  0  0
   -7.6700    3.9520    1.6770 H   0  0  0  0  0  0  0  0  0  0  0  0
   -8.0530    4.4330    3.1380 H   0  0  0  0  0  0  0  0  0  0  0  0
   -2.0470    3.1440    4.4500 H   0  0  0  0  0  0  0  0  0  0  0  0
   -2.0060    2.5980    2.9630 H   0  0  0  0  0  0  0  0  0  0  0  0
   -2.5250    1.6630    4.1330 H   0  0  0  0  0  0  0  0  0  0  0  0
   -3.3750    2.4980    6.1280 H   0  0  0  0  0  0  0  0  0  0  0  0
   -4.9540    2.3740    7.8170 H   0  0  0  0  0  0  0  0  0  0  0  0
  2  1  1  6
  3  2  1  0
  4  2  1  0
  4  5  1  6
  6  5  1  0
  7  6  1  0
  8  7  1  0
  9  6  1  0
  9 10  1  6
 11 10  1  0
 12  9  1  0
 13  4  1  0
 13 12  1  0
 14  5  1  0
  8 15  1  6
 16  8  1  0
 17  8  1  0
 11 18  1  1
 19 11  1  0
 20 11  1  0
 21 12  1  0
 22 13  1  0
M  END
$$$$
