
     RDKit          3D

 38 38  0  0  0  0  0  0  0  0999 V2000
  -17.8920  -11.9400   -4.1030 C   0  0  2  0  0  0  0  0  0  0  0  0
  -15.8140  -17.4090   -4.1060 C   0  0  2  0  0  0  0  0  0  0  0  0
  -16.3040  -18.2040   -6.4290 C   0  0  2  0  0  0  0  0  0  0  0  0
  -20.5000  -15.7280   -4.0330 C   0  0  2  0  0  0  0  0  0  0  0  0
  -18.1960  -13.4260   -3.9360 C   0  0  2  0  0  0  0  0  0  0  0  0
  -18.2350  -14.1150   -5.2810 C   0  0  2  0  0  0  0  0  0  0  0  0
  -19.4870  -13.6240   -3.1480 C   0  0  2  0  0  0  0  0  0  0  0  0
  -19.8540  -15.0820   -2.8200 C   0  0  2  0  0  0  0  0  0  0  0  0
  -18.4650  -17.1310   -2.5970 C   0  0  2  0  0  0  0  0  0  0  0  0
  -19.1210  -17.7700   -3.8060 C   0  0  2  0  0  0  0  0  0  0  0  0
  -18.0560  -18.4570   -4.6760 C   0  0  1  0  0  0  0  0  0  0  0  0
  -16.8950  -17.5950   -5.1660 C   0  0  1  0  0  0  0  0  0  0  0  0
  -18.7150  -15.8530   -2.3390 N   0  0  0  0  0  0  0  0  0  0  0  0
  -19.9310  -16.8140   -4.5460 N   0  0  0  0  0  0  0  0  0  0  0  0
  -17.6350  -17.7750   -1.9510 O   0  0  0  0  0  0  0  0  0  0  0  0
  -21.4610  -15.1730   -4.5730 O   0  0  0  0  0  0  0  0  0  0  0  0
  -17.0220  -11.8300   -4.5240 H   0  0  0  0  0  0  0  0  0  0  0  0
  -17.8850  -11.5090   -3.2300 H   0  0  0  0  0  0  0  0  0  0  0  0
  -18.5750  -11.5290   -4.6610 H   0  0  0  0  0  0  0  0  0  0  0  0
  -15.0140  -17.0390   -4.5190 H   0  0  0  0  0  0  0  0  0  0  0  0
  -15.6010  -18.2690   -3.7030 H   0  0  0  0  0  0  0  0  0  0  0  0
  -16.1340  -16.8000   -3.4180 H   0  0  0  0  0  0  0  0  0  0  0  0
  -16.9860  -18.2430   -7.1210 H   0  0  0  0  0  0  0  0  0  0  0  0
  -15.9840  -19.1030   -6.2380 H   0  0  0  0  0  0  0  0  0  0  0  0
  -15.5620  -17.6550   -6.7380 H   0  0  0  0  0  0  0  0  0  0  0  0
  -17.4620  -13.8430   -3.4210 H   0  0  0  0  0  0  0  0  0  0  0  0
  -18.9780  -13.7670   -5.8040 H   0  0  0  0  0  0  0  0  0  0  0  0
  -18.3510  -15.0730   -5.1530 H   0  0  0  0  0  0  0  0  0  0  0  0
  -17.4020  -13.9520   -5.7560 H   0  0  0  0  0  0  0  0  0  0  0  0
  -20.2260  -13.2290   -3.6570 H   0  0  0  0  0  0  0  0  0  0  0  0
  -19.4160  -13.1280   -2.3040 H   0  0  0  0  0  0  0  0  0  0  0  0
  -20.5100  -15.0490   -2.0780 H   0  0  0  0  0  0  0  0  0  0  0  0
  -19.7340  -18.4890   -3.5050 H   0  0  0  0  0  0  0  0  0  0  0  0
  -17.6850  -19.2060   -4.1630 H   0  0  0  0  0  0  0  0  0  0  0  0
  -18.5070  -18.8360   -5.4610 H   0  0  0  0  0  0  0  0  0  0  0  0
  -17.2480  -16.6930   -5.3660 H   0  0  0  0  0  0  0  0  0  0  0  0
  -18.1480  -15.4480   -1.8410 H   0  0  0  0  0  0  0  0  0  0  0  0
  -20.0540  -16.9560   -5.3810 H   0  0  0  0  0  0  0  0  0  0  0  0
  5  1  1  0
  6  5  1  0
  7  5  1  0
  8  7  1  0
  8  4  1  0
 10  9  1  0
 11 10  1  0
 12 11  1  0
 12  3  1  0
 12  2  1  0
 13  9  1  0
 13  8  1  0
 14 10  1  0
 14  4  1  0
  9 15  1  6
  4 16  1  6
  1 17  1  6
 18  1  1  0
 19  1  1  0
  2 20  1  6
 21  2  1  0
 22  2  1  0
  3 23  1  6
 24  3  1  0
 25  3  1  0
  5 26  1  1
  6 27  1  6
 28  6  1  0
 29  6  1  0
  7 30  1  6
 31  7  1  0
  8 32  1  1
 10 33  1  1
 11 34  1  1
 35 11  1  0
 12 36  1  6
 37 13  1  0
 38 14  1  0
M  END
$$$$
