
     RDKit          3D

 15 16  0  0  0  0  0  0  0  0999 V2000
   69.5840   51.1490   42.1660 N   0  0  0  0  0  0  0  0  0  0  0  0
   70.2790   52.2580   42.5390 C   0  0  0  0  0  0  0  0  0  0  0  0
   70.9610   53.0280   41.5990 C   0  0  0  0  0  0  0  0  0  0  0  0
   70.3300   52.6530   43.8930 N   0  0  0  0  0  0  0  0  0  0  0  0
   69.7360   51.9920   44.7590 O   0  0  0  0  0  0  0  0  0  0  0  0
   71.0010   53.7550   44.2640 C   0  0  0  0  0  0  0  0  0  0  0  0
   71.0270   54.1320   45.5630 N   0  0  0  0  0  0  0  0  0  0  0  0
   71.6620   54.4930   43.3510 N   0  0  0  0  0  0  0  0  0  0  0  0
   71.6600   54.1560   42.0410 C   0  0  0  0  0  0  0  0  0  0  0  0
   72.3720   54.9820   41.1550 N   0  0  0  0  0  0  0  0  0  0  0  0
   73.0980   56.1270   41.7100 C   0  0  0  0  0  0  0  0  0  0  0  0
   72.3510   54.6940   39.7230 C   0  0  0  0  0  0  0  0  0  0  0  0
   73.7980   54.7050   39.2280 C   0  0  0  0  0  0  0  0  0  0  0  0
   74.5710   55.9490   39.6610 C   0  0  0  0  0  0  0  0  0  0  0  0
   73.7570   56.8770   40.5540 C   0  0  0  0  0  0  0  0  0  0  0  0
  2  1  1  0
  3  2  1  0
  4  2  1  0
  5  4  1  0
  6  4  1  0
  7  6  1  0
  8  6  1  0
  9  8  1  0
  9  3  1  0
 10  9  1  0
 11 10  1  0
 12 10  1  0
 13 12  1  0
 14 13  1  0
 15 14  1  0
 15 11  1  0
M  END
$$$$
