
     RDKit          3D

  9 10  0  0  0  0  0  0  0  0999 V2000
   27.9850  -39.6270   11.1850 N   0  0  0  0  0  0  0  0  0  0  0  0
   27.2940  -39.0510   10.1500 C   0  0  0  0  0  0  0  0  0  0  0  0
   26.0130  -38.8050   10.5150 C   0  0  0  0  0  0  0  0  0  0  0  0
   24.7970  -39.2810   12.8330 C   0  0  0  0  0  0  0  0  0  0  0  0
   25.0090  -39.7990   14.0980 C   0  0  0  0  0  0  0  0  0  0  0  0
   26.2670  -40.3050   14.4760 C   0  0  0  0  0  0  0  0  0  0  0  0
   27.3410  -40.2990   13.5780 C   0  0  0  0  0  0  0  0  0  0  0  0
   27.1580  -39.7770   12.2760 C   0  0  0  0  0  0  0  0  0  0  0  0
   25.8720  -39.2620   11.8990 C   0  0  0  0  0  0  0  0  0  0  0  0
  2  1  1  0
  3  2  1  0
  5  4  1  0
  6  5  1  0
  7  6  1  0
  8  7  1  0
  8  1  1  0
  9  3  1  0
  9  8  1  0
  9  4  1  0
M  END
$$$$
