
     RDKit          3D

 15 16  0  0  0  0  0  0  0  0999 V2000
   20.8750    7.2000   45.8350 N   0  0  0  0  0  0  0  0  0  0  0  0
   19.8090    6.3670   45.6730 C   0  0  0  0  0  0  0  0  0  0  0  0
   18.8460    6.9480   44.9260 N   0  0  0  0  0  0  0  0  0  0  0  0
   19.3240    8.1830   44.6210 C   0  0  0  0  0  0  0  0  0  0  0  0
   20.5990    8.3530   45.1830 C   0  0  2  0  0  0  0  0  0  0  0  0
   22.1210    6.8810   46.5950 C   0  0  0  0  0  0  0  0  0  0  0  0
   21.5230    9.5790   45.0070 C   0  0  0  0  0  0  0  0  0  0  0  0
   22.3920    9.1010   43.8180 C   0  0  1  0  0  0  0  0  0  0  0  0
   21.9160    9.3710   42.3940 C   0  0  0  0  0  0  0  0  0  0  0  0
   23.1400    9.2550   41.6740 O   0  0  0  0  0  0  0  0  0  0  0  0
   24.2790    9.2780   42.5430 C   0  0  0  0  0  0  0  0  0  0  0  0
   23.8730    8.8000   43.9010 C   0  0  1  0  0  0  0  0  0  0  0  0
   24.6160    9.5260   45.0050 C   0  0  0  0  0  0  0  0  0  0  0  0
   25.3350    8.4800   45.8340 C   0  0  0  0  0  0  0  0  0  0  0  0
   25.3920    9.6460   42.1810 O   0  0  0  0  0  0  0  0  0  0  0  0
  2  1  1  0
  3  2  1  0
  4  3  1  0
  5  4  1  0
  5  1  1  0
  6  1  1  0
  5  7  1  6
  8  7  1  1
  9  8  1  0
 10  9  1  0
 11 10  1  0
 12 11  1  0
 12  8  1  0
 12 13  1  1
 14 13  1  0
 15 11  1  0
M  END
$$$$
