
     RDKit          3D

 15 15  0  0  0  0  0  0  0  0999 V2000
   53.9230  -23.7920   18.4070 O   0  0  0  0  0  0  0  0  0  0  0  0
   54.8960  -24.3810   18.8150 N   0  0  0  0  0  0  0  0  0  0  0  0
   54.8580  -25.7150   18.8640 N   0  0  0  0  0  0  0  0  0  0  0  0
   53.9060  -26.3570   17.9230 C   0  0  0  0  0  0  0  0  0  0  0  0
   56.2150  -26.2250   18.5760 C   0  0  0  0  0  0  0  0  0  0  0  0
   57.3040  -25.6880   19.5160 C   0  0  0  0  0  0  0  0  0  0  0  0
   56.8390  -25.2320   20.9120 C   0  0  0  0  0  0  0  0  0  0  0  0
   58.0700  -24.8870   21.7380 C   0  0  0  0  0  0  0  0  0  0  0  0
   59.0580  -24.3770   21.2550 O   0  0  0  0  0  0  0  0  0  0  0  0
   58.0960  -25.1130   23.1910 C   0  0  2  0  0  0  0  0  0  0  0  0
   57.4400  -26.1800   23.7650 C   0  0  0  0  0  0  0  0  0  0  0  0
   57.5260  -26.2420   25.1550 C   0  0  0  0  0  0  0  0  0  0  0  0
   58.2360  -25.2820   25.8700 C   0  0  0  0  0  0  0  0  0  0  0  0
   58.8230  -24.2350   25.2860 N   0  0  0  0  0  0  0  0  0  0  0  0
   58.7560  -24.1760   23.9660 C   0  0  0  0  0  0  0  0  0  0  0  0
  2  1  1  0
  3  2  1  0
  4  3  1  0
  5  3  1  0
  6  5  1  0
  7  6  1  0
  8  7  1  0
  9  8  1  0
 10  8  1  1
 11 10  1  0
 12 11  1  0
 13 12  1  0
 14 13  1  0
 15 14  1  0
 15 10  1  0
M  END
$$$$
