
     RDKit          3D

 13 14  0  0  0  0  0  0  0  0999 V2000
  -47.5510   23.9150    0.3150 O   0  0  0  0  0  0  0  0  0  0  0  0
  -48.3170   22.9190    0.3710 C   0  0  0  0  0  0  0  0  0  0  0  0
  -48.5000   22.3030    1.4510 O   0  0  0  0  0  0  0  0  0  0  0  0
  -49.0340   22.3930   -0.8500 C   0  0  0  0  0  0  0  0  0  0  0  0
  -50.0430   21.4550   -0.6220 C   0  0  0  0  0  0  0  0  0  0  0  0
  -50.7480   20.8780   -1.6830 C   0  0  0  0  0  0  0  0  0  0  0  0
  -48.7370   22.7640   -2.1740 C   0  0  0  0  0  0  0  0  0  0  0  0
  -49.4650   22.1810   -3.2360 C   0  0  0  0  0  0  0  0  0  0  0  0
  -49.2090   22.5270   -4.5570 C   0  0  0  0  0  0  0  0  0  0  0  0
  -49.9510   21.9290   -5.5890 C   0  0  0  0  0  0  0  0  0  0  0  0
  -50.9530   20.9900   -5.3240 C   0  0  0  0  0  0  0  0  0  0  0  0
  -51.2120   20.6530   -4.0020 C   0  0  0  0  0  0  0  0  0  0  0  0
  -50.4710   21.2370   -2.9870 C   0  0  0  0  0  0  0  0  0  0  0  0
  2  1  1  0
  3  2  1  0
  4  2  1  0
  5  4  1  0
  6  5  1  0
  7  4  1  0
  8  7  1  0
  9  8  1  0
 10  9  1  0
 11 10  1  0
 12 11  1  0
 13 12  1  0
 13  6  1  0
 13  8  1  0
M  END
$$$$
