
     RDKit          3D

 11 11  0  0  0  0  0  0  0  0999 V2000
    2.9840   -0.9300   19.0400 C   0  0  0  0  0  0  0  0  0  0  0  0
    4.2410   -0.4270   18.8330 N   0  0  0  0  0  0  0  0  0  0  0  0
    4.4210    0.9640   18.4460 C   0  0  0  0  0  0  0  0  0  0  0  0
    5.3440    1.7940   19.1250 C   0  0  0  0  0  0  0  0  0  0  0  0
    5.5020    3.1040   18.7370 C   0  0  0  0  0  0  0  0  0  0  0  0
    4.7680    3.6000   17.6840 C   0  0  0  0  0  0  0  0  0  0  0  0
    3.8570    2.7790   17.0150 C   0  0  0  0  0  0  0  0  0  0  0  0
    3.6970    1.4630   17.4070 C   0  0  0  0  0  0  0  0  0  0  0  0
    4.9160    5.0710   17.2220 C   0  0  0  0  0  0  0  0  0  0  0  0
    3.9830    5.6100   16.6770 O   0  0  0  0  0  0  0  0  0  0  0  0
    6.0300    5.7230   17.4210 O   0  0  0  0  0  0  0  0  0  0  0  0
  2  1  1  0
  3  2  1  0
  4  3  1  0
  5  4  1  0
  6  5  1  0
  7  6  1  0
  8  7  1  0
  8  3  1  0
  9  6  1  0
 10  9  1  0
 11  9  1  0
M  END
$$$$
