
     RDKit          3D

 11 11  0  0  0  0  0  0  0  0999 V2000
    3.1420   -1.1260   19.0060 C   0  0  0  0  0  0  0  0  0  0  0  0
    4.1550    1.5740   18.2450 C   0  0  1  0  0  0  0  0  0  0  0  0
    5.1620    1.3850   19.1760 C   0  0  0  0  0  0  0  0  0  0  0  0
    6.0440    2.4130   19.4800 C   0  0  0  0  0  0  0  0  0  0  0  0
    5.9110    3.6270   18.8270 C   0  0  0  0  0  0  0  0  0  0  0  0
    4.8980    3.8020   17.8900 C   0  0  0  0  0  0  0  0  0  0  0  0
    4.0250    2.7760   17.5830 C   0  0  0  0  0  0  0  0  0  0  0  0
    4.7590    5.1250   17.1580 C   0  0  0  0  0  0  0  0  0  0  0  0
    3.8140    5.3080   16.3430 O   0  0  0  0  0  0  0  0  0  0  0  0
    5.6120    6.0220   17.3640 O   0  0  0  0  0  0  0  0  0  0  0  0
    3.0130    0.2340   17.8200 S   0  0  0  0  0  0  0  0  0  0  0  0
  3  2  1  0
  4  3  1  0
  5  4  1  0
  6  5  1  0
  7  6  1  0
  7  2  1  0
  8  6  1  0
  9  8  1  0
 10  8  1  0
  2 11  1  6
 11  1  1  0
M  END
$$$$
