
     RDKit          3D

 10 10  0  0  0  0  0  0  0  0999 V2000
    3.1730    0.2920   18.0980 C   0  0  0  0  0  0  0  0  0  0  0  0
    4.0840    1.4840   18.3400 C   0  0  1  0  0  0  0  0  0  0  0  0
    5.1330    1.3360   19.2380 C   0  0  0  0  0  0  0  0  0  0  0  0
    6.0230    2.3540   19.4950 C   0  0  0  0  0  0  0  0  0  0  0  0
    5.8410    3.5580   18.8260 C   0  0  0  0  0  0  0  0  0  0  0  0
    4.7980    3.7140   17.8890 C   0  0  0  0  0  0  0  0  0  0  0  0
    3.9090    2.6690   17.6280 C   0  0  0  0  0  0  0  0  0  0  0  0
    4.6570    5.0690   17.1900 C   0  0  0  0  0  0  0  0  0  0  0  0
    3.6800    5.3700   16.4440 O   0  0  0  0  0  0  0  0  0  0  0  0
    5.5310    5.9410   17.4080 O   0  0  0  0  0  0  0  0  0  0  0  0
  2  1  1  6
  3  2  1  0
  4  3  1  0
  5  4  1  0
  6  5  1  0
  7  6  1  0
  7  2  1  0
  8  6  1  0
  9  8  1  0
 10  8  1  0
M  END
$$$$
