
     RDKit          3D

 25 26  0  0  0  0  0  0  0  0999 V2000
    3.3000    0.6040   20.8000 C   0  0  0  0  0  0  0  0  0  0  0  0
    2.0640   -1.8760   20.9450 C   0  0  0  0  0  0  0  0  0  0  0  0
    3.4450    1.7890   17.3440 C   0  0  0  0  0  0  0  0  0  0  0  0
    3.5670    5.8910   16.1860 O   0  0  0  0  0  0  0  0  0  0  0  0
    4.5370    5.4690   16.8600 C   0  0  0  0  0  0  0  0  0  0  0  0
    5.5420    6.1510   17.1670 O   0  0  0  0  0  0  0  0  0  0  0  0
    4.4850    3.9960   17.3580 C   0  0  0  0  0  0  0  0  0  0  0  0
    5.4140    3.5010   18.2780 C   0  0  0  0  0  0  0  0  0  0  0  0
    5.3720    2.1810   18.7290 C   0  0  0  0  0  0  0  0  0  0  0  0
    4.3840    1.3100   18.2600 C   0  0  0  0  0  0  0  0  0  0  0  0
    4.3350   -0.0040   18.7150 O   0  0  0  0  0  0  0  0  0  0  0  0
    3.5180   -0.3320   19.7780 C   0  0  0  0  0  0  0  0  0  0  0  0
    2.4770    0.2960   21.8770 C   0  0  0  0  0  0  0  0  0  0  0  0
    1.8520   -0.9420   21.9600 C   0  0  0  0  0  0  0  0  0  0  0  0
    2.8880   -1.5770   19.8620 C   0  0  0  0  0  0  0  0  0  0  0  0
    3.5050    3.1120   16.9050 C   0  0  0  0  0  0  0  0  0  0  0  0
    3.7110    1.4370   20.7570 H   0  0  0  0  0  0  0  0  0  0  0  0
    1.6490   -2.7060   20.9970 H   0  0  0  0  0  0  0  0  0  0  0  0
    2.7820    1.2200   17.0270 H   0  0  0  0  0  0  0  0  0  0  0  0
    6.0780    4.0710   18.5950 H   0  0  0  0  0  0  0  0  0  0  0  0
    5.9980    1.8680   19.3410 H   0  0  0  0  0  0  0  0  0  0  0  0
    2.3350    0.9180   22.5540 H   0  0  0  0  0  0  0  0  0  0  0  0
    1.3030   -1.1490   22.6810 H   0  0  0  0  0  0  0  0  0  0  0  0
    3.0220   -2.2060   19.1910 H   0  0  0  0  0  0  0  0  0  0  0  0
    2.8760    3.4210   16.2930 H   0  0  0  0  0  0  0  0  0  0  0  0
  5  4  1  0
  6  5  1  0
  7  5  1  0
  8  7  1  0
  9  8  1  0
 10  9  1  0
 10  3  1  0
 11 10  1  0
 12 11  1  0
 12  1  1  0
 13  1  1  0
 14  2  1  0
 14 13  1  0
 15 12  1  0
 15  2  1  0
 16  7  1  0
 16  3  1  0
 17  1  1  0
 18  2  1  0
 19  3  1  0
 20  8  1  0
 21  9  1  0
 22 13  1  0
 23 14  1  0
 24 15  1  0
 25 16  1  0
M  END
$$$$
