
     RDKit          3D

 30 31  0  0  0  0  0  0  0  0999 V2000
    4.3340    0.2160   19.3320 C   0  0  2  0  0  0  0  0  0  0  0  0
    2.9310   -2.2850   19.8310 C   0  0  1  0  0  0  0  0  0  0  0  0
    3.1090    0.1800   20.2400 C   0  0  1  0  0  0  0  0  0  0  0  0
    3.6900    5.8330   16.0630 O   0  0  0  0  0  0  0  0  0  0  0  0
    4.5980    5.4520   16.8450 C   0  0  0  0  0  0  0  0  0  0  0  0
    5.5620    6.2070   17.1140 O   0  0  0  0  0  0  0  0  0  0  0  0
    4.5230    4.0720   17.4880 C   0  0  0  0  0  0  0  0  0  0  0  0
    3.5330    3.1830   17.1030 C   0  0  0  0  0  0  0  0  0  0  0  0
    3.4660    1.9340   17.6950 C   0  0  0  0  0  0  0  0  0  0  0  0
    4.3910    1.5830   18.6630 C   0  0  0  0  0  0  0  0  0  0  0  0
    5.3750    2.4700   19.0500 C   0  0  0  0  0  0  0  0  0  0  0  0
    5.4450    3.7180   18.4600 C   0  0  0  0  0  0  0  0  0  0  0  0
    4.3040   -0.8760   18.2660 C   0  0  2  0  0  0  0  0  0  0  0  0
    4.1560   -2.2440   18.9200 C   0  0  2  0  0  0  0  0  0  0  0  0
    2.9370   -1.1880   20.8890 C   0  0  1  0  0  0  0  0  0  0  0  0
    5.1280    0.0980   19.8760 H   0  0  0  0  0  0  0  0  0  0  0  0
    2.1350   -2.1860   19.2850 H   0  0  0  0  0  0  0  0  0  0  0  0
    2.9050   -3.1460   20.2770 H   0  0  0  0  0  0  0  0  0  0  0  0
    3.2120    0.8490   20.9350 H   0  0  0  0  0  0  0  0  0  0  0  0
    2.3200    0.3820   19.7140 H   0  0  0  0  0  0  0  0  0  0  0  0
    2.9150    3.4240   16.4510 H   0  0  0  0  0  0  0  0  0  0  0  0
    2.8040    1.3310   17.4410 H   0  0  0  0  0  0  0  0  0  0  0  0
    5.9920    2.2270   19.7020 H   0  0  0  0  0  0  0  0  0  0  0  0
    6.1070    4.3190   18.7160 H   0  0  0  0  0  0  0  0  0  0  0  0
    5.1310   -0.8520   17.7600 H   0  0  0  0  0  0  0  0  0  0  0  0
    3.5540   -0.7230   17.6720 H   0  0  0  0  0  0  0  0  0  0  0  0
    4.0600   -2.9180   18.2280 H   0  0  0  0  0  0  0  0  0  0  0  0
    4.9490   -2.4330   19.4450 H   0  0  0  0  0  0  0  0  0  0  0  0
    2.0960   -1.2070   21.3720 H   0  0  0  0  0  0  0  0  0  0  0  0
    3.6690   -1.3430   21.5050 H   0  0  0  0  0  0  0  0  0  0  0  0
  3  1  1  0
  5  4  1  0
  6  5  1  0
  7  5  1  0
  8  7  1  0
  9  8  1  0
 10  9  1  0
 10  1  1  0
 11 10  1  0
 12 11  1  0
 12  7  1  0
 13  1  1  0
 14 13  1  0
 14  2  1  0
 15  3  1  0
 15  2  1  0
  1 16  1  1
  2 17  1  6
 18  2  1  0
  3 19  1  1
 20  3  1  0
 21  8  1  0
 22  9  1  0
 23 11  1  0
 24 12  1  0
 13 25  1  6
 26 13  1  0
 14 27  1  6
 28 14  1  0
 15 29  1  1
 30 15  1  0
M  END
$$$$
