
     RDKit          3D

 18 18  0  0  0  0  0  0  0  0999 V2000
    2.5430   -0.8480   19.2610 C   0  0  1  0  0  0  0  0  0  0  0  0
    4.2630   -0.3300   19.4770 S   0  0  0  0  0  0  0  0  0  0  0  0
    4.3840    1.3250   18.7680 C   0  0  0  0  0  0  0  0  0  0  0  0
    3.4740    1.6950   17.8000 C   0  0  0  0  0  0  0  0  0  0  0  0
    3.5510    2.9640   17.2500 C   0  0  0  0  0  0  0  0  0  0  0  0
    4.5280    3.8330   17.7040 C   0  0  0  0  0  0  0  0  0  0  0  0
    5.4350    3.4570   18.6820 C   0  0  0  0  0  0  0  0  0  0  0  0
    5.3580    2.1900   19.2220 C   0  0  0  0  0  0  0  0  0  0  0  0
    4.6100    5.2250   17.1330 C   0  0  0  0  0  0  0  0  0  0  0  0
    5.5810    5.9580   17.4540 O   0  0  0  0  0  0  0  0  0  0  0  0
    3.6750    5.6310   16.3950 O   0  0  0  0  0  0  0  0  0  0  0  0
    1.9780   -0.3600   19.8800 H   0  0  0  0  0  0  0  0  0  0  0  0
    2.2620   -0.6620   18.3510 H   0  0  0  0  0  0  0  0  0  0  0  0
    2.4670   -1.7990   19.4350 H   0  0  0  0  0  0  0  0  0  0  0  0
    2.8240    1.0950   17.5110 H   0  0  0  0  0  0  0  0  0  0  0  0
    2.9460    3.2340   16.5970 H   0  0  0  0  0  0  0  0  0  0  0  0
    6.0840    4.0550   18.9760 H   0  0  0  0  0  0  0  0  0  0  0  0
    5.9570    1.9210   19.8820 H   0  0  0  0  0  0  0  0  0  0  0  0
  2  1  1  0
  3  2  1  0
  4  3  1  0
  5  4  1  0
  6  5  1  0
  7  6  1  0
  8  7  1  0
  8  3  1  0
  9  6  1  0
 10  9  1  0
 11  9  1  0
  1 12  1  1
 13  1  1  0
 14  1  1  0
 15  4  1  0
 16  5  1  0
 17  7  1  0
 18  8  1  0
M  END
$$$$
