
     RDKit          3D

 15 15  0  0  0  0  0  0  0  0999 V2000
  -18.5120  -18.6920   -4.1550 C   0  0  0  0  0  0  0  0  0  0  0  0
  -17.6290  -19.2530   -5.0850 C   0  0  0  0  0  0  0  0  0  0  0  0
  -18.1160  -20.0870   -6.0810 C   0  0  0  0  0  0  0  0  0  0  0  0
  -19.4750  -20.3390   -6.1080 C   0  0  0  0  0  0  0  0  0  0  0  0
  -19.8670  -19.0070   -4.2730 C   0  0  0  0  0  0  0  0  0  0  0  0
  -17.9730  -17.7520   -3.0120 B   0  0  0  0  0  0  0  0  0  0  0  0
  -20.3420  -19.8140   -5.2330 N   0  0  0  0  0  0  0  0  0  0  0  0
  -18.8480  -17.1600   -2.1530 O   0  0  0  0  0  0  0  0  0  0  0  0
  -16.6350  -17.5260   -2.8760 O   0  0  0  0  0  0  0  0  0  0  0  0
  -16.7040  -19.0610   -5.0290 H   0  0  0  0  0  0  0  0  0  0  0  0
  -17.5330  -20.4670   -6.7170 H   0  0  0  0  0  0  0  0  0  0  0  0
  -19.8130  -20.9100   -6.7770 H   0  0  0  0  0  0  0  0  0  0  0  0
  -20.4780  -18.6350   -3.6490 H   0  0  0  0  0  0  0  0  0  0  0  0
  -19.2520  -17.7050   -1.6800 H   0  0  0  0  0  0  0  0  0  0  0  0
  -16.4530  -16.7080   -2.8770 H   0  0  0  0  0  0  0  0  0  0  0  0
  2  1  1  0
  3  2  1  0
  4  3  1  0
  5  1  1  0
  6  1  1  0
  7  4  1  0
  7  5  1  0
  8  6  1  0
  9  6  1  0
 10  2  1  0
 11  3  1  0
 12  4  1  0
 13  5  1  0
 14  8  1  0
 15  9  1  0
M  END
$$$$
