
     RDKit          3D

 14 14  0  0  0  0  0  0  0  0999 V2000
    5.3810    1.5730   18.8950 C   0  0  0  0  0  0  0  0  0  0  0  0
    4.3910    0.7870   18.2780 C   0  0  0  0  0  0  0  0  0  0  0  0
    3.5300    1.4000   17.3440 C   0  0  0  0  0  0  0  0  0  0  0  0
    3.6470    2.7590   17.0320 C   0  0  0  0  0  0  0  0  0  0  0  0
    4.6310    3.5260   17.6520 C   0  0  0  0  0  0  0  0  0  0  0  0
    5.5130    2.9500   18.5900 C   0  0  0  0  0  0  0  0  0  0  0  0
    4.7100    4.9830   17.2440 C   0  0  0  0  0  0  0  0  0  0  0  0
    4.1630   -1.2100   18.6710 I   0  0  0  0  0  0  0  0  0  0  0  0
    5.7560    5.5930   17.6180 O   0  0  0  0  0  0  0  0  0  0  0  0
    3.7600    5.4960   16.5730 O   0  0  0  0  0  0  0  0  0  0  0  0
    5.9580    1.1820   19.5110 H   0  0  0  0  0  0  0  0  0  0  0  0
    2.8740    0.8900   16.9260 H   0  0  0  0  0  0  0  0  0  0  0  0
    3.0750    3.1470   16.4100 H   0  0  0  0  0  0  0  0  0  0  0  0
    6.1720    3.4650   18.9980 H   0  0  0  0  0  0  0  0  0  0  0  0
  2  1  1  0
  3  2  1  0
  4  3  1  0
  5  4  1  0
  6  5  1  0
  6  1  1  0
  7  5  1  0
  8  2  1  0
  9  7  1  0
 10  7  1  0
 11  1  1  0
 12  3  1  0
 13  4  1  0
 14  6  1  0
M  END
$$$$
