
     RDKit          3D

 20 20  0  0  0  0  0  0  0  0999 V2000
    3.4570    1.8110   17.8500 C   0  0  0  0  0  0  0  0  0  0  0  0
    3.5980    3.0290   17.2100 C   0  0  0  0  0  0  0  0  0  0  0  0
    4.5410    3.9370   17.6590 C   0  0  0  0  0  0  0  0  0  0  0  0
    5.3420    3.6400   18.7450 C   0  0  0  0  0  0  0  0  0  0  0  0
    5.2020    2.4240   19.3840 C   0  0  0  0  0  0  0  0  0  0  0  0
    4.2620    1.5080   18.9350 C   0  0  0  0  0  0  0  0  0  0  0  0
    4.1440    0.1860   19.6860 C   0  0  2  0  0  0  0  0  0  0  0  0
    3.3580   -0.9380   19.0180 C   0  0  1  0  0  0  0  0  0  0  0  0
    4.6980    5.2850   16.9750 C   0  0  0  0  0  0  0  0  0  0  0  0
    5.7480    5.9520   17.1540 O   0  0  0  0  0  0  0  0  0  0  0  0
    3.7630    5.7250   16.2620 O   0  0  0  0  0  0  0  0  0  0  0  0
    4.6070   -2.0110   17.9990 Br  0  0  0  0  0  0  0  0  0  0  0  0
    2.8250    1.1970   17.5520 H   0  0  0  0  0  0  0  0  0  0  0  0
    3.0600    3.2380   16.4810 H   0  0  0  0  0  0  0  0  0  0  0  0
    5.9710    4.2560   19.0440 H   0  0  0  0  0  0  0  0  0  0  0  0
    5.7390    2.2190   20.1150 H   0  0  0  0  0  0  0  0  0  0  0  0
    3.7280    0.3690   20.5430 H   0  0  0  0  0  0  0  0  0  0  0  0
    5.0420   -0.1400   19.8540 H   0  0  0  0  0  0  0  0  0  0  0  0
    2.9290   -1.4860   19.6940 H   0  0  0  0  0  0  0  0  0  0  0  0
    2.6870   -0.5630   18.4260 H   0  0  0  0  0  0  0  0  0  0  0  0
  2  1  1  0
  3  2  1  0
  4  3  1  0
  5  4  1  0
  6  5  1  0
  6  1  1  0
  7  6  1  0
  8  7  1  0
  9  3  1  0
 10  9  1  0
 11  9  1  0
 12  8  1  0
 13  1  1  0
 14  2  1  0
 15  4  1  0
 16  5  1  0
  7 17  1  1
 18  7  1  0
  8 19  1  1
 20  8  1  0
M  END
$$$$
