
     RDKit          3D

 21 22  0  0  0  0  0  0  0  0999 V2000
  -15.2550  -17.5560   -6.6220 C   0  0  0  0  0  0  0  0  0  0  0  0
  -18.1160  -19.5160   -5.0320 C   0  0  0  0  0  0  0  0  0  0  0  0
  -17.8060  -19.1190   -3.7120 C   0  0  0  0  0  0  0  0  0  0  0  0
  -16.7440  -18.2910   -3.4180 C   0  0  0  0  0  0  0  0  0  0  0  0
  -15.9680  -17.8350   -4.4760 C   0  0  0  0  0  0  0  0  0  0  0  0
  -14.4510  -16.8500   -5.7810 C   0  0  0  0  0  0  0  0  0  0  0  0
  -19.2970  -20.4280   -5.2960 C   0  0  1  0  0  0  0  0  0  0  0  0
  -16.2430  -18.2050   -5.8130 C   0  0  0  0  0  0  0  0  0  0  0  0
  -17.3310  -19.0540   -6.0840 C   0  0  0  0  0  0  0  0  0  0  0  0
  -20.5770  -19.7320   -5.4970 N   0  0  0  0  0  0  0  0  0  0  0  0
  -14.8730  -17.0050   -4.4880 N   0  0  0  0  0  0  0  0  0  0  0  0
  -15.1770  -17.6080   -7.5630 H   0  0  0  0  0  0  0  0  0  0  0  0
  -18.3410  -19.4280   -3.0090 H   0  0  0  0  0  0  0  0  0  0  0  0
  -16.5500  -18.0430   -2.5320 H   0  0  0  0  0  0  0  0  0  0  0  0
  -13.7120  -16.3290   -6.0420 H   0  0  0  0  0  0  0  0  0  0  0  0
  -19.1190  -20.9670   -6.1000 H   0  0  0  0  0  0  0  0  0  0  0  0
  -19.4080  -21.0460   -4.5360 H   0  0  0  0  0  0  0  0  0  0  0  0
  -17.5250  -19.3080   -6.9720 H   0  0  0  0  0  0  0  0  0  0  0  0
  -21.1140  -20.3340   -5.9930 H   0  0  0  0  0  0  0  0  0  0  0  0
  -20.9110  -19.5880   -4.6230 H   0  0  0  0  0  0  0  0  0  0  0  0
  -14.4980  -16.6300   -3.7740 H   0  0  0  0  0  0  0  0  0  0  0  0
  3  2  1  0
  4  3  1  0
  5  4  1  0
  6  1  1  0
  7  2  1  0
  8  1  1  0
  8  5  1  0
  9  2  1  0
  9  8  1  0
 10  7  1  0
 11  6  1  0
 11  5  1  0
 12  1  1  0
 13  3  1  0
 14  4  1  0
 15  6  1  0
  7 16  1  6
 17  7  1  0
 18  9  1  0
 19 10  1  0
 20 10  1  0
 21 11  1  0
M  END
$$$$
