
     RDKit          3D

 15 16  0  0  0  0  0  0  0  0999 V2000
    4.2690    3.7220   17.7640 C   0  0  0  0  0  0  0  0  0  0  0  0
    4.9890    3.3640   18.8960 C   0  0  0  0  0  0  0  0  0  0  0  0
    4.6830    2.1820   19.5570 C   0  0  0  0  0  0  0  0  0  0  0  0
    4.5430    5.0290   17.0410 C   0  0  1  0  0  0  0  0  0  0  0  0
    2.2850   -0.7460   21.7960 C   0  0  0  0  0  0  0  0  0  0  0  0
    2.7420    0.3320   21.0540 C   0  0  0  0  0  0  0  0  0  0  0  0
    3.2490    0.1110   19.7820 C   0  0  2  0  0  0  0  0  0  0  0  0
    2.8380   -2.1260   19.9280 C   0  0  0  0  0  0  0  0  0  0  0  0
    2.3320   -2.0050   21.2140 C   0  0  0  0  0  0  0  0  0  0  0  0
    3.6740    1.3760   19.0570 C   0  0  1  0  0  0  0  0  0  0  0  0
    2.9410    1.7550   17.9470 C   0  0  0  0  0  0  0  0  0  0  0  0
    3.2450    2.9280   17.2880 C   0  0  0  0  0  0  0  0  0  0  0  0
    3.2660   -1.0820   19.2400 N   0  0  0  0  0  0  0  0  0  0  0  0
    3.6730    5.4530   16.2300 O   0  0  0  0  0  0  0  0  0  0  0  0
    5.5540    5.7160   17.3310 O   0  0  0  0  0  0  0  0  0  0  0  0
  2  1  1  0
  3  2  1  0
  4  1  1  0
  6  5  1  0
  7  6  1  6
  9  8  1  0
  9  5  1  0
 10  7  1  0
 10  3  1  1
 11 10  1  0
 12 11  1  0
 12  1  1  0
 13  8  1  0
 13  7  1  0
  4 14  1  1
 15  4  1  0
M  END
$$$$
