
     RDKit          3D

 16 17  0  0  0  0  0  0  0  0999 V2000
    3.1880    0.7300   21.3070 C   0  0  0  0  0  0  0  0  0  0  0  0
    1.5200   -1.4640   21.5010 C   0  0  0  0  0  0  0  0  0  0  0  0
    3.3460    1.7060   17.6920 C   0  0  0  0  0  0  0  0  0  0  0  0
    3.4110    2.9990   17.2090 C   0  0  0  0  0  0  0  0  0  0  0  0
    4.4450    5.2840   17.1480 C   0  0  0  0  0  0  0  0  0  0  0  0
    4.3860    3.8580   17.6810 C   0  0  0  0  0  0  0  0  0  0  0  0
    5.3020    3.4350   18.6290 C   0  0  0  0  0  0  0  0  0  0  0  0
    5.2380    2.1380   19.1120 C   0  0  0  0  0  0  0  0  0  0  0  0
    4.2580    1.2800   18.6420 C   0  0  0  0  0  0  0  0  0  0  0  0
    4.1810   -0.1520   19.1590 C   0  0  0  0  0  0  0  0  0  0  0  0
    3.2230   -0.2590   20.3380 C   0  0  0  0  0  0  0  0  0  0  0  0
    2.3160    0.6220   22.3750 C   0  0  0  0  0  0  0  0  0  0  0  0
    1.4830   -0.4730   22.4660 C   0  0  0  0  0  0  0  0  0  0  0  0
    2.3910   -1.3590   20.4320 C   0  0  0  0  0  0  0  0  0  0  0  0
    3.5000    5.7210   16.4410 O   0  0  0  0  0  0  0  0  0  0  0  0
    5.4300    6.0150   17.4220 O   0  0  0  0  0  0  0  0  0  0  0  0
  4  3  1  0
  6  5  1  0
  6  4  1  0
  7  6  1  0
  8  7  1  0
  9  8  1  0
  9  3  1  0
 10  9  1  0
 11 10  1  0
 11  1  1  0
 12  1  1  0
 13  2  1  0
 13 12  1  0
 14 11  1  0
 14  2  1  0
 15  5  1  0
 16  5  1  0
M  END
$$$$
