
     RDKit          3D

 35 39  0  0  0  0  0  0  0  0999 V2000
   23.8720   45.4780   27.7540 O   0  0  0  0  0  0  0  0  0  0  0  0
   24.4280   44.7880   26.9020 C   0  0  1  0  0  0  0  0  0  0  0  0
   24.9860   43.6060   27.1190 N   0  0  0  0  0  0  0  0  0  0  0  0
   25.0250   43.0260   28.4760 C   0  0  1  0  0  0  0  0  0  0  0  0
   23.6610   42.2970   28.4760 C   0  0  0  0  0  0  0  0  0  0  0  0
   23.2530   41.8210   29.8100 N   0  0  0  0  0  0  0  0  0  0  0  0
   22.8070   42.5890   30.8360 C   0  0  0  0  0  0  0  0  0  0  0  0
   22.5140   41.7510   31.8650 C   0  0  0  0  0  0  0  0  0  0  0  0
   22.7750   40.4880   31.4430 N   0  0  0  0  0  0  0  0  0  0  0  0
   23.2130   40.5650   30.1640 C   0  0  0  0  0  0  0  0  0  0  0  0
   26.1670   42.1540   28.7340 C   0  0  0  0  0  0  0  0  0  0  0  0
   26.2370   40.8310   28.2960 C   0  0  0  0  0  0  0  0  0  0  0  0
   27.3480   40.0580   28.5840 C   0  0  0  0  0  0  0  0  0  0  0  0
   28.3920   40.6170   29.3330 C   0  0  0  0  0  0  0  0  0  0  0  0
   29.8400   39.7050   29.7400 Cl  0  0  0  0  0  0  0  0  0  0  0  0
   28.3270   41.9120   29.7350 C   0  0  0  0  0  0  0  0  0  0  0  0
   27.2370   42.6660   29.4670 C   0  0  0  0  0  0  0  0  0  0  0  0
   27.2660   44.3450   30.0640 Cl  0  0  0  0  0  0  0  0  0  0  0  0
   24.3210   45.0980   25.4380 C   0  0  1  0  0  0  0  0  0  0  0  0
   25.3380   44.9720   24.5140 C   0  0  0  0  0  0  0  0  0  0  0  0
   25.0760   45.2290   23.1750 C   0  0  0  0  0  0  0  0  0  0  0  0
   23.7930   45.5160   22.7580 C   0  0  0  0  0  0  0  0  0  0  0  0
   22.7680   45.5650   23.6830 C   0  0  0  0  0  0  0  0  0  0  0  0
   23.0290   45.3370   25.0350 C   0  0  0  0  0  0  0  0  0  0  0  0
   23.4970   45.7280   21.4060 C   0  0  0  0  0  0  0  0  0  0  0  0
   24.3590   45.7340   20.3560 N   0  0  0  0  0  0  0  0  0  0  0  0
   23.6020   46.0110   19.2090 N   0  0  0  0  0  0  0  0  0  0  0  0
   22.3070   46.1520   19.5770 C   0  0  0  0  0  0  0  0  0  0  0  0
   22.2380   45.9830   20.9270 O   0  0  0  0  0  0  0  0  0  0  0  0
   21.1990   46.4160   18.7630 C   0  0  0  0  0  0  0  0  0  0  0  0
   19.9210   46.5440   19.3400 C   0  0  0  0  0  0  0  0  0  0  0  0
   18.8140   46.8160   18.5340 C   0  0  0  0  0  0  0  0  0  0  0  0
   19.0030   46.9730   17.1560 C   0  0  0  0  0  0  0  0  0  0  0  0
   20.2710   46.8540   16.5820 C   0  0  0  0  0  0  0  0  0  0  0  0
   21.3750   46.5750   17.3800 C   0  0  0  0  0  0  0  0  0  0  0  0
  2  1  1  6
  3  2  1  0
  4  3  1  0
  4  5  1  6
  6  5  1  0
  7  6  1  0
  8  7  1  0
  9  8  1  0
 10  9  1  0
 10  6  1  0
 11  4  1  0
 12 11  1  0
 13 12  1  0
 14 13  1  0
 15 14  1  0
 16 14  1  0
 17 11  1  0
 17 16  1  0
 18 17  1  0
 19  2  1  0
 19 20  1  6
 21 20  1  0
 22 21  1  0
 23 22  1  0
 24 23  1  0
 24 19  1  0
 25 22  1  0
 26 25  1  0
 27 26  1  0
 28 27  1  0
 29 28  1  0
 29 25  1  0
 30 28  1  0
 31 30  1  0
 32 31  1  0
 33 32  1  0
 34 33  1  0
 35 34  1  0
 35 30  1  0
M  END
$$$$
