
     RDKit          3D

 37 41  0  0  0  0  0  0  0  0999 V2000
   24.6420   58.2160   26.4930 C   0  0  0  0  0  0  0  0  0  0  0  0
   36.1680   68.9020   29.8090 F   0  0  0  0  0  0  0  0  0  0  0  0
   23.7350   57.8650   24.3150 N   0  0  0  0  0  0  0  0  0  0  0  0
   30.4260   61.3420   29.5560 O   0  0  0  0  0  0  0  0  0  0  0  0
   23.7310   57.6660   25.6190 C   0  0  0  0  0  0  0  0  0  0  0  0
   30.4910   63.8330   26.2550 F   0  0  0  0  0  0  0  0  0  0  0  0
   26.5300   59.6020   27.0300 N   0  0  0  0  0  0  0  0  0  0  0  0
   27.6780   61.2030   25.8590 O   0  0  0  0  0  0  0  0  0  0  0  0
   24.6960   58.6730   23.8880 C   0  0  0  0  0  0  0  0  0  0  0  0
   29.1850   62.1210   27.8650 N   0  0  0  0  0  0  0  0  0  0  0  0
   25.6580   59.2720   24.7240 C   0  0  0  0  0  0  0  0  0  0  0  0
   24.8290   59.3350   30.3560 N   0  0  0  0  0  0  0  0  0  0  0  0
   25.6620   59.0530   26.0840 C   0  0  0  0  0  0  0  0  0  0  0  0
   27.4120   60.6450   26.9000 C   0  0  0  0  0  0  0  0  0  0  0  0
   28.0820   61.2030   28.1290 C   0  0  2  0  0  0  0  0  0  0  0  0
   30.2870   62.1520   28.6500 C   0  0  0  0  0  0  0  0  0  0  0  0
   31.3500   63.2280   28.4740 C   0  0  0  0  0  0  0  0  0  0  0  0
   32.3120   63.4990   29.4480 C   0  0  0  0  0  0  0  0  0  0  0  0
   33.2680   64.5090   29.2580 C   0  0  0  0  0  0  0  0  0  0  0  0
   33.3190   65.2740   28.0770 C   0  0  2  0  0  0  0  0  0  0  0  0
   34.3160   66.3870   27.8780 C   0  0  1  0  0  0  0  0  0  0  0  0
   34.7200   66.7670   26.5930 C   0  0  0  0  0  0  0  0  0  0  0  0
   35.6070   67.8350   26.3920 C   0  0  0  0  0  0  0  0  0  0  0  0
   36.0990   68.5600   27.4760 C   0  0  0  0  0  0  0  0  0  0  0  0
   35.6950   68.2060   28.7620 C   0  0  0  0  0  0  0  0  0  0  0  0
   34.8010   67.1370   28.9690 C   0  0  0  0  0  0  0  0  0  0  0  0
   32.3610   65.0460   27.0800 C   0  0  0  0  0  0  0  0  0  0  0  0
   31.3950   64.0570   27.2310 C   0  0  0  0  0  0  0  0  0  0  0  0
   27.0690   61.9810   28.9660 C   0  0  0  0  0  0  0  0  0  0  0  0
   25.9710   61.0360   29.3730 C   0  0  2  0  0  0  0  0  0  0  0  0
   26.0290   59.9900   30.3060 C   0  0  0  0  0  0  0  0  0  0  0  0
   23.9490   59.8830   29.4780 C   0  0  0  0  0  0  0  0  0  0  0  0
   22.6340   59.6290   29.1260 C   0  0  0  0  0  0  0  0  0  0  0  0
   22.0190   60.4230   28.1660 C   0  0  0  0  0  0  0  0  0  0  0  0
   22.6800   61.4690   27.5300 C   0  0  0  0  0  0  0  0  0  0  0  0
   23.9910   61.7750   27.8390 C   0  0  0  0  0  0  0  0  0  0  0  0
   24.6120   61.0060   28.8010 C   0  0  0  0  0  0  0  0  0  0  0  0
  5  3  1  0
  5  1  1  0
  9  3  1  0
 11  9  1  0
 13 11  1  0
 13  7  1  0
 13  1  1  0
 14  7  1  0
 14  8  1  0
 15 14  1  0
 15 10  1  0
 16 10  1  0
 16  4  1  0
 17 16  1  0
 18 17  1  0
 19 18  1  0
 20 19  1  1
 21 20  1  0
 21 22  1  6
 23 22  1  0
 24 23  1  0
 25 24  1  0
 25  2  1  0
 26 25  1  0
 26 21  1  0
 27 20  1  0
 28 27  1  0
 28  6  1  0
 28 17  1  0
 15 29  1  6
 30 29  1  6
 31 12  1  0
 31 30  1  0
 32 12  1  0
 33 32  1  0
 34 33  1  0
 35 34  1  0
 36 35  1  0
 37 32  1  0
 37 36  1  0
 37 30  1  0
M  END
$$$$
