
     RDKit          3D

 41 46  0  0  0  0  0  0  0  0999 V2000
  -34.4040  -17.6270   41.6700 C   0  0  0  0  0  0  0  0  0  0  0  0
  -35.4970  -16.8280   41.3550 C   0  0  0  0  0  0  0  0  0  0  0  0
  -36.2780  -16.2810   42.3670 C   0  0  0  0  0  0  0  0  0  0  0  0
  -37.3560  -15.4870   42.0320 F   0  0  0  0  0  0  0  0  0  0  0  0
  -35.9610  -16.5300   43.7040 C   0  0  0  0  0  0  0  0  0  0  0  0
  -34.8660  -17.3370   44.0180 C   0  0  0  0  0  0  0  0  0  0  0  0
  -34.0890  -17.8990   43.0000 C   0  0  0  0  0  0  0  0  0  0  0  0
  -32.9730  -18.6940   43.2790 C   0  0  0  0  0  0  0  0  0  0  0  0
  -32.9430  -19.5460   44.3780 C   0  0  0  0  0  0  0  0  0  0  0  0
  -31.7970  -20.3030   44.6160 C   0  0  0  0  0  0  0  0  0  0  0  0
  -31.7650  -21.0980   45.6450 F   0  0  0  0  0  0  0  0  0  0  0  0
  -31.8510  -18.6060   42.4370 C   0  0  0  0  0  0  0  0  0  0  0  0
  -30.7100  -19.3770   42.6830 C   0  0  0  0  0  0  0  0  0  0  0  0
  -30.6840  -20.2420   43.7760 C   0  0  0  0  0  0  0  0  0  0  0  0
  -29.5410  -21.0180   44.0930 C   0  0  2  0  0  0  0  0  0  0  0  0
  -28.2420  -20.2010   43.8770 C   0  0  0  0  0  0  0  0  0  0  0  0
  -28.0690  -19.0050   44.6990 N   0  0  0  0  0  0  0  0  0  0  0  0
  -27.7670  -18.9610   45.9960 C   0  0  0  0  0  0  0  0  0  0  0  0
  -27.6720  -17.6800   46.3400 C   0  0  0  0  0  0  0  0  0  0  0  0
  -27.8970  -16.9460   45.2600 N   0  0  0  0  0  0  0  0  0  0  0  0
  -28.1470  -17.7610   44.2340 C   0  0  0  0  0  0  0  0  0  0  0  0
  -29.2880  -22.2180   43.2730 N   0  0  0  0  0  0  0  0  0  0  0  0
  -28.6060  -23.2550   43.8340 C   0  0  2  0  0  0  0  0  0  0  0  0
  -28.1950  -23.1980   44.9960 O   0  0  0  0  0  0  0  0  0  0  0  0
  -28.1860  -24.2950   42.9820 C   0  0  2  0  0  0  0  0  0  0  0  0
  -26.9140  -24.8170   43.2170 C   0  0  0  0  0  0  0  0  0  0  0  0
  -26.3810  -25.8190   42.4040 C   0  0  0  0  0  0  0  0  0  0  0  0
  -28.9140  -24.7770   41.8910 C   0  0  0  0  0  0  0  0  0  0  0  0
  -28.3780  -25.7830   41.0700 C   0  0  0  0  0  0  0  0  0  0  0  0
  -27.1140  -26.3270   41.3330 C   0  0  1  0  0  0  0  0  0  0  0  0
  -26.5470  -27.2670   40.5520 C   0  0  2  0  0  0  0  0  0  0  0  0
  -25.1300  -27.4020   40.4060 O   0  0  0  0  0  0  0  0  0  0  0  0
  -27.1410  -28.1520   39.7450 N   0  0  0  0  0  0  0  0  0  0  0  0
  -26.1600  -28.8440   39.1450 N   0  0  0  0  0  0  0  0  0  0  0  0
  -24.9620  -28.3810   39.5490 C   0  0  0  0  0  0  0  0  0  0  0  0
  -23.7430  -28.8060   39.1670 C   0  0  0  0  0  0  0  0  0  0  0  0
  -22.6250  -28.4800   39.9460 C   0  0  0  0  0  0  0  0  0  0  0  0
  -21.3400  -28.8960   39.5890 C   0  0  0  0  0  0  0  0  0  0  0  0
  -21.1690  -29.6480   38.4250 C   0  0  0  0  0  0  0  0  0  0  0  0
  -22.2710  -29.9710   37.6330 C   0  0  0  0  0  0  0  0  0  0  0  0
  -23.5570  -29.5520   37.9990 C   0  0  0  0  0  0  0  0  0  0  0  0
  2  1  1  0
  3  2  1  0
  4  3  1  0
  5  3  1  0
  6  5  1  0
  7  1  1  0
  7  6  1  0
  8  7  1  0
  9  8  1  0
 10  9  1  0
 11 10  1  0
 12  8  1  0
 13 12  1  0
 14 13  1  0
 14 10  1  0
 15 14  1  0
 15 16  1  6
 17 16  1  0
 18 17  1  0
 19 18  1  0
 20 19  1  0
 21 20  1  0
 21 17  1  0
 22 15  1  0
 23 22  1  0
 23 24  1  6
 25 23  1  0
 25 26  1  6
 27 26  1  0
 28 25  1  0
 29 28  1  0
 30 29  1  6
 30 27  1  0
 31 30  1  0
 32 31  1  0
 31 33  1  6
 34 33  1  0
 35 34  1  0
 35 32  1  0
 36 35  1  0
 37 36  1  0
 38 37  1  0
 39 38  1  0
 40 39  1  0
 41 40  1  0
 41 36  1  0
M  END
$$$$
