
     RDKit          3D

 21 20  0  0  0  0  0  0  0  0999 V2000
   50.0160   36.6830   17.9380 C   0  0  0  0  0  0  0  0  0  0  0  0
   48.5390   36.9880   17.6800 C   0  0  0  0  0  0  0  0  0  0  0  0
   47.6280   36.1160   18.5480 C   0  0  0  0  0  0  0  0  0  0  0  0
   46.1570   36.3200   18.1770 C   0  0  0  0  0  0  0  0  0  0  0  0
   45.2490   35.3550   18.9460 C   0  0  0  0  0  0  0  0  0  0  0  0
   43.8090   35.4170   18.4300 C   0  0  2  0  0  0  0  0  0  0  0  0
   42.9930   34.4600   19.1120 O   0  0  0  0  0  0  0  0  0  0  0  0
   43.7990   35.1100   16.9320 C   0  0  0  0  0  0  0  0  0  0  0  0
   42.6210   35.2420   16.2070 C   0  0  0  0  0  0  0  0  0  0  0  0
   42.6160   34.9700   14.8440 C   0  0  0  0  0  0  0  0  0  0  0  0
   43.7850   34.5660   14.2080 C   0  0  0  0  0  0  0  0  0  0  0  0
   43.7870   34.3030   12.8430 C   0  0  0  0  0  0  0  0  0  0  0  0
   43.5940   35.5960   12.0460 C   0  0  0  0  0  0  0  0  0  0  0  0
   43.9290   35.3930   10.5670 C   0  0  0  0  0  0  0  0  0  0  0  0
   45.3740   34.9080   10.4240 C   0  0  0  0  0  0  0  0  0  0  0  0
   45.8080   34.7450    8.9650 C   0  0  0  0  0  0  0  0  0  0  0  0
   45.9690   36.0890    8.2500 C   0  0  0  0  0  0  0  0  0  0  0  0
   44.6300   36.8090    8.0810 C   0  0  0  0  0  0  0  0  0  0  0  0
   43.6370   35.9180    7.3320 C   0  0  0  0  0  0  0  0  0  0  0  0
   43.6440   35.9740    6.0830 O   0  0  0  0  0  0  0  0  0  0  0  0
   42.9000   35.1920    8.0360 O   0  0  0  0  0  0  0  0  0  0  0  0
  2  1  1  0
  3  2  1  0
  4  3  1  0
  5  4  1  0
  6  5  1  0
  6  7  1  1
  8  6  1  0
  9  8  1  0
 10  9  1  0
 11 10  1  0
 12 11  1  0
 13 12  1  0
 14 13  1  0
 15 14  1  0
 16 15  1  0
 17 16  1  0
 18 17  1  0
 19 18  1  0
 20 19  1  0
 21 19  1  0
M  END
$$$$
