
     RDKit          3D

 12 13  0  0  0  0  0  0  0  0999 V2000
   43.9590  -43.6120   -7.1740 C   0  0  0  0  0  0  0  0  0  0  0  0
   43.8130  -43.3220   -9.3420 C   0  0  0  0  0  0  0  0  0  0  0  0
   42.5310  -43.2180   -8.7850 C   0  0  0  0  0  0  0  0  0  0  0  0
   44.2130  -43.1700  -10.7970 C   0  0  0  0  0  0  0  0  0  0  0  0
   43.2790  -43.0690  -11.8280 C   0  0  0  0  0  0  0  0  0  0  0  0
   43.6960  -42.9000  -13.1550 C   0  0  0  0  0  0  0  0  0  0  0  0
   45.0600  -42.8340  -13.4550 C   0  0  0  0  0  0  0  0  0  0  0  0
   45.9710  -42.9200  -12.4160 C   0  0  0  0  0  0  0  0  0  0  0  0
   45.7260  -42.6040  -15.2530 Br  0  0  0  0  0  0  0  0  0  0  0  0
   45.5650  -43.0890  -11.0970 C   0  0  0  0  0  0  0  0  0  0  0  0
   42.6740  -43.4090   -7.4480 N   0  0  0  0  0  0  0  0  0  0  0  0
   44.6570  -43.5460   -8.3070 N   0  0  0  0  0  0  0  0  0  0  0  0
  3  2  1  0
  4  2  1  0
  5  4  1  0
  6  5  1  0
  7  6  1  0
  8  7  1  0
  9  7  1  0
 10  8  1  0
 10  4  1  0
 11  3  1  0
 11  1  1  0
 12  1  1  0
 12  2  1  0
M  END
$$$$
