
     RDKit          3D

 50 52  0  0  0  0  0  0  0  0999 V2000
  -40.9630   -1.6430   21.7210 O   0  0  0  0  0  0  0  0  0  0  0  0
  -39.8640   -2.0680   22.0910 C   0  0  0  0  0  0  0  0  0  0  0  0
  -39.5730   -2.8620   23.3150 C   0  0  0  0  0  0  0  0  0  0  0  0
  -40.5610   -3.2550   24.1200 C   0  0  0  0  0  0  0  0  0  0  0  0
  -40.2470   -4.0610   25.3260 C   0  0  2  0  0  0  0  0  0  0  0  0
  -40.4380   -5.5450   24.9560 C   0  0  0  0  0  0  0  0  0  0  0  0
  -41.2610   -3.7000   26.4160 C   0  0  1  0  0  0  0  0  0  0  0  0
  -40.8900   -4.4020   27.5750 O   0  0  0  0  0  0  0  0  0  0  0  0
  -41.7160   -5.4720   28.0370 C   0  0  2  0  0  0  0  0  0  0  0  0
  -42.8630   -4.8960   28.6660 O   0  0  0  0  0  0  0  0  0  0  0  0
  -43.7890   -5.8540   29.1810 C   0  0  2  0  0  0  0  0  0  0  0  0
  -45.0630   -5.1880   29.7120 C   0  0  0  0  0  0  0  0  0  0  0  0
  -43.0690   -6.6710   30.2390 C   0  0  0  0  0  0  0  0  0  0  0  0
  -41.7860   -7.3100   29.6810 C   0  0  2  0  0  0  0  0  0  0  0  0
  -41.0020   -7.9620   30.7660 N   0  0  0  0  0  0  0  0  0  0  0  0
  -40.5620   -7.0600   31.8280 C   0  0  0  0  0  0  0  0  0  0  0  0
  -41.6430   -9.1320   31.3370 C   0  0  0  0  0  0  0  0  0  0  0  0
  -40.8980   -6.2290   29.0620 C   0  0  1  0  0  0  0  0  0  0  0  0
  -39.7650   -6.8490   28.4300 O   0  0  0  0  0  0  0  0  0  0  0  0
  -41.2720   -2.2030   26.8000 C   0  0  1  0  0  0  0  0  0  0  0  0
  -42.5880   -1.8640   27.5320 C   0  0  0  0  0  0  0  0  0  0  0  0
  -40.0030   -1.7750   27.5860 C   0  0  0  0  0  0  0  0  0  0  0  0
  -39.9720   -0.2670   27.9650 C   0  0  1  0  0  0  0  0  0  0  0  0
  -38.7290    0.1320   28.7400 C   0  0  0  0  0  0  0  0  0  0  0  0
  -40.0540    0.6070   26.7370 C   0  0  2  0  0  0  0  0  0  0  0  0
  -40.9430    1.4670   26.6850 O   0  0  0  0  0  0  0  0  0  0  0  0
  -39.1530    0.3750   25.5740 C   0  0  0  0  0  0  0  0  0  0  0  0
  -39.3840    0.9300   24.3700 C   0  0  0  0  0  0  0  0  0  0  0  0
  -38.4990    0.5330   23.2850 C   0  0  0  0  0  0  0  0  0  0  0  0
  -38.7840    0.8290   22.0260 C   0  0  0  0  0  0  0  0  0  0  0  0
  -38.7040   -1.8440   21.3170 O   0  0  0  0  0  0  0  0  0  0  0  0
  -38.6570   -0.8670   20.2590 C   0  0  2  0  0  0  0  0  0  0  0  0
  -37.7910   -1.4880   19.1260 C   0  0  0  0  0  0  0  0  0  0  0  0
  -38.2180   -2.8510   18.6640 C   0  0  0  0  0  0  0  0  0  0  0  0
  -37.9660    0.3890   20.8320 C   0  0  2  0  0  0  0  0  0  0  0  0
  -36.6430   -0.0120   21.2020 O   0  0  0  0  0  0  0  0  0  0  0  0
  -37.8300    1.5520   19.8500 C   0  0  0  0  0  0  0  0  0  0  0  0
  -39.1500    1.8050   19.3450 O   0  0  0  0  0  0  0  0  0  0  0  0
  -39.5340    3.1630   19.6220 C   0  0  1  0  0  0  0  0  0  0  0  0
  -39.5430    4.0150   18.3670 C   0  0  2  0  0  0  0  0  0  0  0  0
  -38.2070    4.0460   17.8120 O   0  0  0  0  0  0  0  0  0  0  0  0
  -38.1390    4.4820   16.4690 C   0  0  0  0  0  0  0  0  0  0  0  0
  -40.8210    3.1360   20.2320 O   0  0  0  0  0  0  0  0  0  0  0  0
  -41.3330    4.3830   20.7070 C   0  0  2  0  0  0  0  0  0  0  0  0
  -42.6630    4.1060   21.4030 C   0  0  0  0  0  0  0  0  0  0  0  0
  -41.4580    5.2690   19.4360 C   0  0  1  0  0  0  0  0  0  0  0  0
  -41.9780    6.5640   19.7480 O   0  0  0  0  0  0  0  0  0  0  0  0
  -40.1070    5.4070   18.7170 C   0  0  1  0  0  0  0  0  0  0  0  0
  -39.1840    6.1290   19.5870 O   0  0  0  0  0  0  0  0  0  0  0  0
  -38.6050    7.3730   19.0760 C   0  0  0  0  0  0  0  0  0  0  0  0
  2  1  1  0
  3  2  1  0
  4  3  1  0
  5  4  1  0
  5  6  1  6
  7  5  1  0
  7  8  1  1
  9  8  1  1
 10  9  1  0
 11 10  1  0
 11 12  1  1
 13 11  1  0
 14 13  1  0
 14 15  1  1
 16 15  1  0
 17 15  1  0
 18 14  1  0
 18  9  1  0
 18 19  1  6
 20  7  1  0
 20 21  1  1
 22 20  1  0
 23 22  1  0
 23 24  1  6
 25 23  1  0
 25 26  1  6
 27 25  1  0
 28 27  1  0
 29 28  1  0
 30 29  1  0
 31  2  1  0
 32 31  1  0
 32 33  1  6
 34 33  1  0
 35 32  1  0
 35 30  1  0
 35 36  1  1
 37 35  1  0
 38 37  1  0
 39 38  1  6
 40 39  1  0
 40 41  1  1
 42 41  1  0
 43 39  1  0
 44 43  1  0
 44 45  1  6
 46 44  1  0
 46 47  1  1
 48 46  1  0
 48 40  1  0
 48 49  1  1
 50 49  1  0
M  END
$$$$
