
     RDKit          3D

 26 26  0  0  0  0  0  0  0  0999 V2000
   56.3360   -6.5980   19.2080 O   0  0  0  0  0  0  0  0  0  0  0  0
   55.3770   -5.8840   19.1770 C   0  0  0  0  0  0  0  0  0  0  0  0
   54.5760   -5.5620   20.3870 C   0  0  2  0  0  0  0  0  0  0  0  0
   55.3540   -4.7330   21.3670 C   0  0  0  0  0  0  0  0  0  0  0  0
   53.9980   -6.8410   20.9420 C   0  0  1  0  0  0  0  0  0  0  0  0
   55.0040   -7.6130   21.5430 O   0  0  0  0  0  0  0  0  0  0  0  0
   52.8830   -6.5500   21.9200 C   0  0  1  0  0  0  0  0  0  0  0  0
   51.8890   -5.5880   21.3260 C   0  0  0  0  0  0  0  0  0  0  0  0
   52.2030   -7.8310   22.2830 C   0  0  1  0  0  0  0  0  0  0  0  0
   51.2120   -7.5930   23.3830 C   0  0  0  0  0  0  0  0  0  0  0  0
   51.4800   -8.1870   21.1520 O   0  0  0  0  0  0  0  0  0  0  0  0
   54.8690   -5.2460   17.9220 C   0  0  1  0  0  0  0  0  0  0  0  0
   55.8480   -4.1520   17.5890 C   0  0  0  0  0  0  0  0  0  0  0  0
   54.5400   -6.1960   16.7710 C   0  0  0  0  0  0  0  0  0  0  0  0
   54.7640   -7.6580   17.0630 C   0  0  2  0  0  0  0  0  0  0  0  0
   56.1330   -8.0290   16.5340 C   0  0  0  0  0  0  0  0  0  0  0  0
   53.7510   -8.6010   16.4390 C   0  0  2  0  0  0  0  0  0  0  0  0
   53.5510   -8.2060   15.1070 O   0  0  0  0  0  0  0  0  0  0  0  0
   52.4280   -8.7320   17.1740 C   0  0  1  0  0  0  0  0  0  0  0  0
   51.2990   -9.0030   16.2100 C   0  0  0  0  0  0  0  0  0  0  0  0
   52.4410   -9.8560   18.1800 C   0  0  2  0  0  0  0  0  0  0  0  0
   52.3250  -11.0660   17.4740 O   0  0  0  0  0  0  0  0  0  0  0  0
   51.3090   -9.7050   19.1800 C   0  0  1  0  0  0  0  0  0  0  0  0
   50.3750  -10.8960   19.2260 C   0  0  0  0  0  0  0  0  0  0  0  0
   51.7940   -9.4430   20.5740 C   0  0  0  0  0  0  0  0  0  0  0  0
   52.3810  -10.2360   21.2330 O   0  0  0  0  0  0  0  0  0  0  0  0
  2  1  1  0
  3  2  1  0
  3  4  1  1
  5  3  1  0
  5  6  1  1
  7  5  1  0
  7  8  1  6
  9  7  1  0
  9 10  1  1
 11  9  1  0
 12  2  1  0
 12 13  1  6
 14 12  1  0
 15 14  1  0
 15 16  1  6
 17 15  1  0
 17 18  1  6
 19 17  1  0
 19 20  1  6
 21 19  1  0
 21 22  1  6
 23 21  1  0
 23 24  1  1
 25 23  1  0
 25 11  1  0
 26 25  1  0
M  END
$$$$
