
     RDKit          3D

 21 24  0  0  0  0  0  0  0  0999 V2000
   37.1370   -7.2510   13.2260 C   0  0  0  0  0  0  0  0  0  0  0  0
   36.5500   -6.5850   14.4680 C   0  0  1  0  0  0  0  0  0  0  0  0
   38.0920   -4.5910   14.1810 C   0  0  0  0  0  0  0  0  0  0  0  0
   38.8440   -3.4300   14.8320 C   0  0  0  0  0  0  0  0  0  0  0  0
   38.3120   -2.9780   16.1940 C   0  0  1  0  0  0  0  0  0  0  0  0
   38.1270   -4.2000   17.0570 C   0  0  1  0  0  0  0  0  0  0  0  0
   38.0220   -3.6780   18.5100 C   0  0  0  0  0  0  0  0  0  0  0  0
   39.0220   -2.5160   18.5490 C   0  0  0  0  0  0  0  0  0  0  0  0
   39.2320   -2.1750   17.0840 C   0  0  0  0  0  0  0  0  0  0  0  0
   37.0660   -2.1240   16.0380 C   0  0  0  0  0  0  0  0  0  0  0  0
   35.3370   -5.7750   14.0450 C   0  0  0  0  0  0  0  0  0  0  0  0
   36.2680   -8.3700   12.6340 C   0  0  0  0  0  0  0  0  0  0  0  0
   35.8510   -9.3370   13.7030 C   0  0  0  0  0  0  0  0  0  0  0  0
   35.8020   -8.9130   15.1170 C   0  0  0  0  0  0  0  0  0  0  0  0
   36.0790   -7.6330   15.4590 C   0  0  2  0  0  0  0  0  0  0  0  0
   35.8250   -7.2310   16.8820 C   0  0  0  0  0  0  0  0  0  0  0  0
   36.8680   -6.2680   17.4100 C   0  0  0  0  0  0  0  0  0  0  0  0
   37.0760   -5.1110   16.4750 C   0  0  2  0  0  0  0  0  0  0  0  0
   37.5890   -5.6750   15.1400 C   0  0  1  0  0  0  0  0  0  0  0  0
   35.5310  -10.4750   13.3940 O   0  0  0  0  0  0  0  0  0  0  0  0
   40.0320   -1.3070   16.6900 O   0  0  0  0  0  0  0  0  0  0  0  0
  2  1  1  0
  4  3  1  0
  5  4  1  0
  6  5  1  0
  6  7  1  1
  8  7  1  0
  9  5  1  0
  9  8  1  0
  5 10  1  6
  2 11  1  6
 12  1  1  0
 13 12  1  0
 14 13  1  0
 15 14  1  6
 15  2  1  0
 16 15  1  0
 17 16  1  0
 18 17  1  1
 18  6  1  0
 19  2  1  0
 19  3  1  6
 19 18  1  0
 20 13  1  0
 21  9  1  0
M  END
$$$$
