
     RDKit          3D

 22 24  0  0  0  0  0  0  0  0999 V2000
    5.1760   15.4340   14.7580 O   0  0  0  0  0  0  0  0  0  0  0  0
    3.9030   15.5410   15.4030 C   0  0  1  0  0  0  0  0  0  0  0  0
    3.4740   14.1650   15.9500 C   0  0  0  0  0  0  0  0  0  0  0  0
    3.9780   16.6600   16.4490 C   0  0  0  0  0  0  0  0  0  0  0  0
    2.8340   15.8400   14.3910 C   0  0  1  0  0  0  0  0  0  0  0  0
    4.1720   13.8570   17.1760 N   0  0  0  0  0  0  0  0  0  0  0  0
    5.4070   13.4390   17.4730 C   0  0  0  0  0  0  0  0  0  0  0  0
    3.4140   14.0280   18.3370 N   0  0  0  0  0  0  0  0  0  0  0  0
    5.4490   13.3430   18.8350 N   0  0  0  0  0  0  0  0  0  0  0  0
    4.2490   13.7010   19.3600 C   0  0  0  0  0  0  0  0  0  0  0  0
    4.2750   17.9490   15.8250 N   0  0  0  0  0  0  0  0  0  0  0  0
    4.8340   18.3310   14.6670 C   0  0  0  0  0  0  0  0  0  0  0  0
    3.9460   19.0800   16.5720 N   0  0  0  0  0  0  0  0  0  0  0  0
    4.8630   19.6850   14.6830 N   0  0  0  0  0  0  0  0  0  0  0  0
    4.3280   20.1390   15.8320 C   0  0  0  0  0  0  0  0  0  0  0  0
    3.0050   15.5410   13.0410 C   0  0  0  0  0  0  0  0  0  0  0  0
    1.5430   16.4020   14.8380 C   0  0  0  0  0  0  0  0  0  0  0  0
    1.9740   15.8140   12.1360 C   0  0  0  0  0  0  0  0  0  0  0  0
    0.7700   16.3640   12.5750 C   0  0  0  0  0  0  0  0  0  0  0  0
   -0.2170   16.6140   11.7120 F   0  0  0  0  0  0  0  0  0  0  0  0
    0.5540   16.6540   13.9090 C   0  0  0  0  0  0  0  0  0  0  0  0
    1.3370   16.6940   16.1300 F   0  0  0  0  0  0  0  0  0  0  0  0
  2  1  1  6
  3  2  1  0
  4  2  1  0
  5  2  1  0
  6  3  1  0
  7  6  1  0
  8  6  1  0
  9  7  1  0
 10  9  1  0
 10  8  1  0
 11  4  1  0
 12 11  1  0
 13 11  1  0
 14 12  1  0
 15 14  1  0
 15 13  1  0
  5 16  1  1
 17  5  1  0
 18 16  1  0
 19 18  1  0
 20 19  1  0
 21 19  1  0
 21 17  1  0
 22 17  1  0
M  END
$$$$
