
     RDKit          3D

 51 57  0  0  0  0  0  0  0  0999 V2000
  -51.7860    1.3380   -6.4510 C   0  0  0  0  0  0  0  0  0  0  0  0
  -48.4050    1.8670   -4.1170 C   0  0  0  0  0  0  0  0  0  0  0  0
  -50.0310    4.5940   -8.1130 O   0  0  0  0  0  0  0  0  0  0  0  0
  -49.8130    0.5630   -5.5550 O   0  0  0  0  0  0  0  0  0  0  0  0
  -36.1990   15.0650  -21.4760 F   0  0  0  0  0  0  0  0  0  0  0  0
  -37.7290   12.3440  -18.0410 F   0  0  0  0  0  0  0  0  0  0  0  0
  -36.9310   13.7370  -19.7240 C   0  0  0  0  0  0  0  0  0  0  0  0
  -43.3050    7.6660  -17.4610 C   0  0  0  0  0  0  0  0  0  0  0  0
  -44.2240    9.5960  -16.4670 C   0  0  0  0  0  0  0  0  0  0  0  0
  -44.2580    6.8720  -16.8580 C   0  0  0  0  0  0  0  0  0  0  0  0
  -45.1940    8.8000  -15.8540 C   0  0  0  0  0  0  0  0  0  0  0  0
  -46.6130    3.7640  -11.6940 C   0  0  0  0  0  0  0  0  0  0  0  0
  -48.6600    5.0110  -11.7130 C   0  0  0  0  0  0  0  0  0  0  0  0
  -46.9700    3.1970  -10.4910 C   0  0  0  0  0  0  0  0  0  0  0  0
  -49.0240    4.4380  -10.5070 C   0  0  0  0  0  0  0  0  0  0  0  0
  -37.6830   12.6790  -19.3130 C   0  0  0  0  0  0  0  0  0  0  0  0
  -35.1650    8.6920  -19.8690 C   0  0  0  0  0  0  0  0  0  0  0  0
  -37.6460   13.3000  -21.9550 C   0  0  0  0  0  0  0  0  0  0  0  0
  -36.9200    9.1580  -20.8930 C   0  0  0  0  0  0  0  0  0  0  0  0
  -47.9400    1.9080   -8.2000 C   0  0  0  0  0  0  0  0  0  0  0  0
  -51.5320    2.7840   -6.0770 C   0  0  0  0  0  0  0  0  0  0  0  0
  -41.2350    9.8340  -19.9540 C   0  0  0  0  0  0  0  0  0  0  0  0
  -46.9560    7.2040  -14.4840 C   0  0  0  0  0  0  0  0  0  0  0  0
  -45.4840    5.3290  -15.1050 C   0  0  0  0  0  0  0  0  0  0  0  0
  -47.9570    6.1760  -13.9980 C   0  0  0  0  0  0  0  0  0  0  0  0
  -46.4970    4.4000  -14.4490 C   0  0  0  0  0  0  0  0  0  0  0  0
  -39.9660   10.1150  -20.6980 C   0  0  0  0  0  0  0  0  0  0  0  0
  -42.4750   10.9870  -18.3060 C   0  0  0  0  0  0  0  0  0  0  0  0
  -38.2390    9.8770  -18.9100 C   0  0  0  0  0  0  0  0  0  0  0  0
  -35.7100    8.6890  -21.0450 N   0  0  0  0  0  0  0  0  0  0  0  0
  -36.0570    9.1140  -19.0130 N   0  0  0  0  0  0  0  0  0  0  0  0
  -48.5170    1.7840   -7.0110 N   0  0  0  0  0  0  0  0  0  0  0  0
  -42.2720    9.6870  -17.9130 O   0  0  0  0  0  0  0  0  0  0  0  0
  -40.0900   11.3020  -18.7070 O   0  0  0  0  0  0  0  0  0  0  0  0
  -36.9220   14.0360  -21.0550 C   0  0  0  0  0  0  0  0  0  0  0  0
  -38.3940   12.2340  -21.5270 C   0  0  0  0  0  0  0  0  0  0  0  0
  -43.2710    9.0250  -17.2820 C   0  0  0  0  0  0  0  0  0  0  0  0
  -45.2080    7.4250  -16.0400 C   0  0  0  0  0  0  0  0  0  0  0  0
  -47.4700    4.6480  -12.3020 C   0  0  1  0  0  0  0  0  0  0  0  0
  -48.1750    3.5270   -9.9140 C   0  0  0  0  0  0  0  0  0  0  0  0
  -38.3980   11.9420  -20.1920 C   0  0  0  0  0  0  0  0  0  0  0  0
  -49.2940    3.4930   -7.9090 C   0  0  0  0  0  0  0  0  0  0  0  0
  -49.7770    1.7260   -4.7550 C   0  0  2  0  0  0  0  0  0  0  0  0
  -41.3690   11.3180  -19.2940 C   0  0  1  0  0  0  0  0  0  0  0  0
  -50.0960    2.8930   -5.6580 C   0  0  1  0  0  0  0  0  0  0  0  0
  -46.1160    6.5920  -15.5160 N   0  0  0  0  0  0  0  0  0  0  0  0
  -47.0650    5.2150  -13.4080 N   0  0  0  0  0  0  0  0  0  0  0  0
  -37.0630    9.3970  -19.6170 N   0  0  0  0  0  0  0  0  0  0  0  0
  -48.4700    2.9690   -8.7670 N   0  0  0  0  0  0  0  0  0  0  0  0
  -49.2900    2.7210   -6.8500 N   0  0  0  0  0  0  0  0  0  0  0  0
  -39.1740   10.8090  -19.6430 C   0  0  2  0  0  0  0  0  0  0  0  0
 10  8  1  0
 11  9  1  0
 14 12  1  0
 15 13  1  0
 16  7  1  0
 16  6  1  0
 21  1  1  0
 25 23  1  0
 26 24  1  0
 27 22  1  0
 30 19  1  0
 30 17  1  0
 31 17  1  0
 32 20  1  0
 33 28  1  0
 35 18  1  0
 35  7  1  0
 35  5  1  0
 36 18  1  0
 37  9  1  0
 37 33  1  0
 37  8  1  0
 38 10  1  0
 38 11  1  0
 39 13  1  0
 39 12  1  0
 40 15  1  0
 40 14  1  0
 41 36  1  0
 41 16  1  0
 42  3  1  0
 43  4  1  0
 43  2  1  6
 44 22  1  0
 44 34  1  0
 44 28  1  1
 45 21  1  6
 45 43  1  0
 46 24  1  0
 46 38  1  0
 46 23  1  0
 39 47  1  1
 47 26  1  0
 47 25  1  0
 48 29  1  0
 48 31  1  0
 48 19  1  0
 49 42  1  0
 49 40  1  0
 49 20  1  0
 50 45  1  0
 50 42  1  0
 50 32  1  0
 51 29  1  1
 51 27  1  0
 51 41  1  0
 51 34  1  0
M  END
$$$$
