
     RDKit          3D

 44 49  0  0  0  0  0  0  0  0999 V2000
   -3.9760   50.9000   -5.3290 O   0  0  0  0  0  0  0  0  0  0  0  0
   -4.8420   51.7950   -5.6970 C   0  0  0  0  0  0  0  0  0  0  0  0
   -6.1870   51.7450   -5.5800 N   0  0  0  0  0  0  0  0  0  0  0  0
   -6.8650   50.5710   -5.2940 C   0  0  0  0  0  0  0  0  0  0  0  0
   -8.1650   50.4370   -5.8370 C   0  0  0  0  0  0  0  0  0  0  0  0
   -8.9200   49.2740   -5.6460 C   0  0  0  0  0  0  0  0  0  0  0  0
   -8.4420   48.2560   -4.9190 N   0  0  0  0  0  0  0  0  0  0  0  0
   -7.1990   48.3190   -4.3820 C   0  0  0  0  0  0  0  0  0  0  0  0
   -6.3930   49.4710   -4.5500 C   0  0  0  0  0  0  0  0  0  0  0  0
   -4.3710   53.1230   -6.4160 C   0  0  1  0  0  0  0  0  0  0  0  0
   -4.2040   52.9660   -7.9300 C   0  0  0  0  0  0  0  0  0  0  0  0
   -5.5220   52.7190   -8.5060 C   0  0  1  0  0  0  0  0  0  0  0  0
   -6.1400   51.4180   -8.8520 C   0  0  0  0  0  0  0  0  0  0  0  0
   -5.6710   50.1410   -8.8300 C   0  0  0  0  0  0  0  0  0  0  0  0
   -6.5950   49.1790   -9.2290 C   0  0  0  0  0  0  0  0  0  0  0  0
   -7.9090   49.4420   -9.6440 C   0  0  0  0  0  0  0  0  0  0  0  0
   -8.4090   50.7210   -9.6820 C   0  0  0  0  0  0  0  0  0  0  0  0
   -7.5290   51.7320   -9.2940 C   0  0  0  0  0  0  0  0  0  0  0  0
   -7.6570   53.0810   -9.2090 N   0  0  0  0  0  0  0  0  0  0  0  0
   -6.4980   53.6880   -8.7680 C   0  0  0  0  0  0  0  0  0  0  0  0
   -5.2210   54.2960   -6.0640 N   0  0  0  0  0  0  0  0  0  0  0  0
   -5.0530   54.9390   -4.9330 C   0  0  1  0  0  0  0  0  0  0  0  0
   -4.3660   54.4410   -4.0540 O   0  0  0  0  0  0  0  0  0  0  0  0
   -5.5390   56.3340   -4.6440 C   0  0  0  0  0  0  0  0  0  0  0  0
   -5.9460   57.3320   -5.6380 C   0  0  2  0  0  0  0  0  0  0  0  0
   -5.8430   57.1040   -6.9120 F   0  0  0  0  0  0  0  0  0  0  0  0
   -6.3690   58.5650   -5.2120 C   0  0  0  0  0  0  0  0  0  0  0  0
   -6.3980   58.8560   -3.8460 C   0  0  2  0  0  0  0  0  0  0  0  0
   -6.0580   57.9060   -2.8910 C   0  0  0  0  0  0  0  0  0  0  0  0
   -5.6230   56.6980   -3.3210 C   0  0  0  0  0  0  0  0  0  0  0  0
   -6.8800   60.0790   -3.4290 N   0  0  0  0  0  0  0  0  0  0  0  0
   -6.3430   60.8090   -2.3140 C   0  0  0  0  0  0  0  0  0  0  0  0
   -7.6020   61.3580   -1.6610 C   0  0  0  0  0  0  0  0  0  0  0  0
   -8.3430   62.1780   -2.6210 N   0  0  0  0  0  0  0  0  0  0  0  0
   -8.0860   62.0570   -4.0180 C   0  0  0  0  0  0  0  0  0  0  0  0
   -8.0870   60.5770   -4.1250 C   0  0  0  0  0  0  0  0  0  0  0  0
   -9.3820   63.0370   -2.1480 C   0  0  2  0  0  0  0  0  0  0  0  0
   -9.0150   64.1160   -1.2210 C   0  0  1  0  0  0  0  0  0  0  0  0
   -7.7520   64.3860   -0.9310 F   0  0  0  0  0  0  0  0  0  0  0  0
   -9.9510   65.0090   -0.7710 C   0  0  0  0  0  0  0  0  0  0  0  0
  -11.2810   64.8380   -1.0680 C   0  0  0  0  0  0  0  0  0  0  0  0
  -12.0790   65.7680   -0.4690 F   0  0  0  0  0  0  0  0  0  0  0  0
  -11.6970   63.7830   -1.9030 C   0  0  0  0  0  0  0  0  0  0  0  0
  -10.7370   62.8990   -2.4550 C   0  0  0  0  0  0  0  0  0  0  0  0
  2  1  1  0
  3  2  1  0
  4  3  1  0
  5  4  1  0
  6  5  1  0
  7  6  1  0
  8  7  1  0
  9  8  1  0
  9  4  1  0
 10  2  1  0
 10 11  1  6
 12 11  1  1
 13 12  1  0
 14 13  1  0
 15 14  1  0
 16 15  1  0
 17 16  1  0
 18 17  1  0
 18 13  1  0
 19 18  1  0
 20 19  1  0
 20 12  1  0
 21 10  1  0
 22 21  1  0
 22 23  1  6
 24 22  1  0
 25 24  1  0
 25 26  1  6
 27 25  1  0
 28 27  1  0
 29 28  1  0
 30 29  1  0
 30 24  1  0
 28 31  1  1
 32 31  1  0
 33 32  1  0
 34 33  1  0
 35 34  1  0
 36 35  1  0
 36 31  1  0
 37 34  1  1
 38 37  1  0
 38 39  1  6
 40 38  1  0
 41 40  1  0
 42 41  1  0
 43 41  1  0
 44 43  1  0
 44 37  1  0
M  END
$$$$
