
     RDKit          3D

 39 43  0  0  0  0  0  0  0  0999 V2000
   77.6710   21.4000   21.1650 O   0  0  0  0  0  0  0  0  0  0  0  0
   82.2710   17.0030   25.4160 Cl  0  0  0  0  0  0  0  0  0  0  0  0
   67.8390   25.7670   11.1180 Cl  0  0  0  0  0  0  0  0  0  0  0  0
   68.2600   22.8670   11.2580 Cl  0  0  0  0  0  0  0  0  0  0  0  0
   83.0310   19.5160   21.0380 Cl  0  0  0  0  0  0  0  0  0  0  0  0
   83.2020   24.2190   23.1750 C   0  0  0  0  0  0  0  0  0  0  0  0
   80.7640   18.8680   24.6880 C   0  0  0  0  0  0  0  0  0  0  0  0
   77.2970   22.4450   17.9010 C   0  0  0  0  0  0  0  0  0  0  0  0
   76.1100   20.4660   18.3060 C   0  0  0  0  0  0  0  0  0  0  0  0
   69.9670   25.8420   12.7220 C   0  0  0  0  0  0  0  0  0  0  0  0
   76.2270   22.9440   17.1870 C   0  0  0  0  0  0  0  0  0  0  0  0
   75.0500   20.9890   17.5900 C   0  0  0  0  0  0  0  0  0  0  0  0
   70.9810   25.2680   13.4560 C   0  0  0  0  0  0  0  0  0  0  0  0
   80.4040   19.8280   23.7870 C   0  0  0  0  0  0  0  0  0  0  0  0
   82.4320   23.6250   22.3030 C   0  0  0  0  0  0  0  0  0  0  0  0
   81.6010   23.3560   24.1980 C   0  0  0  0  0  0  0  0  0  0  0  0
   82.5570   18.3250   23.2530 C   0  0  0  0  0  0  0  0  0  0  0  0
   70.2680   23.1280   12.7900 C   0  0  0  0  0  0  0  0  0  0  0  0
   72.7840   21.9690   16.1630 C   0  0  0  0  0  0  0  0  0  0  0  0
   74.0690   24.0610   15.6990 C   0  0  0  0  0  0  0  0  0  0  0  0
   72.1550   22.0480   14.7850 C   0  0  0  0  0  0  0  0  0  0  0  0
   73.4440   24.1270   14.3270 C   0  0  0  0  0  0  0  0  0  0  0  0
   80.3500   22.3320   22.4290 C   0  0  0  0  0  0  0  0  0  0  0  0
   82.6780   24.0940   24.3770 N   0  0  0  0  0  0  0  0  0  0  0  0
   78.3310   20.7360   19.1610 N   0  0  0  0  0  0  0  0  0  0  0  0
   79.6220   20.3530   21.0500 O   0  0  0  0  0  0  0  0  0  0  0  0
   78.5260   20.8830   20.4690 C   0  0  2  0  0  0  0  0  0  0  0  0
   81.8530   18.1070   24.4120 C   0  0  0  0  0  0  0  0  0  0  0  0
   77.2580   21.2080   18.5000 C   0  0  1  0  0  0  0  0  0  0  0  0
   69.0880   25.0690   12.0100 C   0  0  0  0  0  0  0  0  0  0  0  0
   69.2560   23.7140   12.0590 C   0  0  0  0  0  0  0  0  0  0  0  0
   82.1990   19.2940   22.3500 C   0  0  0  0  0  0  0  0  0  0  0  0
   75.0730   22.2290   17.0050 C   0  0  0  0  0  0  0  0  0  0  0  0
   71.1520   23.9090   13.5110 C   0  0  0  0  0  0  0  0  0  0  0  0
   81.1100   20.0710   22.6300 C   0  0  1  0  0  0  0  0  0  0  0  0
   80.6840   21.0330   21.7390 C   0  0  2  0  0  0  0  0  0  0  0  0
   74.0340   22.7170   16.2960 N   0  0  0  0  0  0  0  0  0  0  0  0
   72.1820   23.3940   14.2240 N   0  0  0  0  0  0  0  0  0  0  0  0
   81.4590   23.0680   22.9430 N   0  0  0  0  0  0  0  0  0  0  0  0
 11  8  1  0
 12  9  1  0
 13 10  1  0
 14  7  1  0
 15  6  1  0
 21 19  1  0
 22 20  1  0
 24 16  1  0
 24  6  1  0
 27 26  1  0
 27 25  1  0
 27  1  1  1
 28  7  1  0
 28 17  1  0
 28  2  1  0
 29  9  1  0
 29 25  1  6
 29  8  1  0
 30 10  1  0
 30  3  1  0
 31 30  1  0
 31 18  1  0
 31  4  1  0
 32  5  1  0
 32 17  1  0
 33 12  1  0
 33 11  1  0
 34 18  1  0
 34 13  1  0
 35 14  1  6
 35 32  1  0
 36 26  1  0
 36 35  1  0
 36 23  1  1
 37 20  1  0
 37 19  1  0
 37 33  1  0
 38 34  1  0
 38 22  1  0
 38 21  1  0
 39 23  1  0
 39 16  1  0
 39 15  1  0
M  END
$$$$
