
     RDKit          3D

 38 41  0  0  0  0  0  0  0  0999 V2000
    6.1480   15.7510   19.7380 C   0  0  0  0  0  0  0  0  0  0  0  0
    6.5560   13.5290   18.6220 N   0  0  0  0  0  0  0  0  0  0  0  0
    6.5260   16.8610   19.9230 O   0  0  0  0  0  0  0  0  0  0  0  0
    7.0050   14.5410   19.5520 C   0  0  1  0  0  0  0  0  0  0  0  0
    8.4860   14.9770   19.1050 C   0  0  2  0  0  0  0  0  0  0  0  0
    9.2880   13.6290   19.0070 C   0  0  2  0  0  0  0  0  0  0  0  0
    4.6830   12.2990   17.9300 O   0  0  0  0  0  0  0  0  0  0  0  0
    2.3890   15.6530   19.4770 C   0  0  1  0  0  0  0  0  0  0  0  0
    2.9060   14.2480   18.9590 C   0  0  1  0  0  0  0  0  0  0  0  0
    3.4880   16.3780   19.9010 C   0  0  2  0  0  0  0  0  0  0  0  0
    5.1760   13.1660   18.6020 C   0  0  0  0  0  0  0  0  0  0  0  0
    4.3700   14.0780   19.5780 C   0  0  1  0  0  0  0  0  0  0  0  0
    4.7430   15.4010   19.7180 N   0  0  0  0  0  0  0  0  0  0  0  0
    9.5980   13.1590   17.7400 C   0  0  0  0  0  0  0  0  0  0  0  0
    9.7370   12.6980   19.9020 C   0  0  0  0  0  0  0  0  0  0  0  0
   10.2490   11.9690   17.8760 N   0  0  0  0  0  0  0  0  0  0  0  0
   10.3410   11.6730   19.2180 C   0  0  0  0  0  0  0  0  0  0  0  0
    9.6830   12.6680   21.3060 C   0  0  0  0  0  0  0  0  0  0  0  0
   10.8360   10.5510   21.3060 C   0  0  0  0  0  0  0  0  0  0  0  0
   10.8930   10.5820   19.9190 C   0  0  0  0  0  0  0  0  0  0  0  0
   10.2300   11.5970   21.9940 C   0  0  0  0  0  0  0  0  0  0  0  0
    7.1130   13.1510   18.0870 H   0  0  0  0  0  0  0  0  0  0  0  0
    7.0130   14.1290   20.4300 H   0  0  0  0  0  0  0  0  0  0  0  0
    8.8850   15.5640   19.7670 H   0  0  0  0  0  0  0  0  0  0  0  0
    8.4660   15.4260   18.2460 H   0  0  0  0  0  0  0  0  0  0  0  0
    1.9490   16.1240   18.7520 H   0  0  0  0  0  0  0  0  0  0  0  0
    1.7790   15.5210   20.2190 H   0  0  0  0  0  0  0  0  0  0  0  0
    2.3470   13.5740   19.3770 H   0  0  0  0  0  0  0  0  0  0  0  0
    3.0170   14.3290   17.9990 H   0  0  0  0  0  0  0  0  0  0  0  0
    3.3880   16.6220   20.8350 H   0  0  0  0  0  0  0  0  0  0  0  0
    3.5990   17.1700   19.3530 H   0  0  0  0  0  0  0  0  0  0  0  0
    4.4280   13.6580   20.4500 H   0  0  0  0  0  0  0  0  0  0  0  0
    9.3970   13.5820   16.9370 H   0  0  0  0  0  0  0  0  0  0  0  0
    9.2800   13.3650   21.7720 H   0  0  0  0  0  0  0  0  0  0  0  0
   11.2020    9.8350   21.7730 H   0  0  0  0  0  0  0  0  0  0  0  0
   11.2940    9.8830   19.4540 H   0  0  0  0  0  0  0  0  0  0  0  0
   10.1920   11.5770   22.9230 H   0  0  0  0  0  0  0  0  0  0  0  0
   10.5510   11.4840   17.2330 H   0  0  0  0  0  0  0  0  0  0  0  0
  3  1  1  0
  4  2  1  0
  4  1  1  0
  5  4  1  0
  6  5  1  0
  9  8  1  0
 10  8  1  0
 11  7  1  0
 11  2  1  0
 12 11  1  0
 12  9  1  0
 13 12  1  0
 13 10  1  0
 13  1  1  0
  6 14  1  6
 15  6  1  0
 16 14  1  0
 17 16  1  0
 17 15  1  0
 18 15  1  0
 20 19  1  0
 20 17  1  0
 21 19  1  0
 21 18  1  0
 22  2  1  0
  4 23  1  1
  5 24  1  1
 25  5  1  0
  8 26  1  6
 27  8  1  0
  9 28  1  6
 29  9  1  0
 10 30  1  1
 31 10  1  0
 12 32  1  1
 33 14  1  0
 34 18  1  0
 35 19  1  0
 36 20  1  0
 37 21  1  0
 38 16  1  0
M  END
$$$$
