
     RDKit          3D

 22 24  0  0  0  0  0  0  0  0999 V2000
   -3.0980   27.6360   15.7350 C   0  0  0  0  0  0  0  0  0  0  0  0
   -2.1950   28.5640   16.2480 C   0  0  0  0  0  0  0  0  0  0  0  0
   -1.0580   28.1310   16.9200 C   0  0  0  0  0  0  0  0  0  0  0  0
   -2.4360   29.9230   16.0950 C   0  0  0  0  0  0  0  0  0  0  0  0
   -3.8590   30.4320   15.2640 Cl  0  0  0  0  0  0  0  0  0  0  0  0
   -1.5400   30.8550   16.6130 C   0  0  0  0  0  0  0  0  0  0  0  0
   -1.7690   32.2180   16.4730 C   0  0  0  0  0  0  0  0  0  0  0  0
   -0.4040   30.4190   17.2780 C   0  0  0  0  0  0  0  0  0  0  0  0
   -0.1590   29.0580   17.4410 C   0  0  0  0  0  0  0  0  0  0  0  0
    0.9740   28.6650   18.0980 O   0  0  0  0  0  0  0  0  0  0  0  0
    0.9280   27.4050   18.6110 C   0  0  0  0  0  0  0  0  0  0  0  0
    1.8540   26.4630   18.1760 C   0  0  0  0  0  0  0  0  0  0  0  0
   -0.0070   27.0570   19.5820 C   0  0  0  0  0  0  0  0  0  0  0  0
   -0.0170   25.7630   20.1000 C   0  0  0  0  0  0  0  0  0  0  0  0
    0.9030   24.8170   19.6600 C   0  0  0  0  0  0  0  0  0  0  0  0
    1.8390   25.1700   18.6920 C   0  0  0  0  0  0  0  0  0  0  0  0
    2.7690   24.2440   18.2430 C   0  0  0  0  0  0  0  0  0  0  0  0
    4.0420   24.9500   17.9710 N   0  0  0  0  0  0  0  0  0  0  0  0
    4.9870   25.2210   18.8740 C   0  0  0  0  0  0  0  0  0  0  0  0
    5.9710   25.8710   18.2500 C   0  0  0  0  0  0  0  0  0  0  0  0
    5.6350   25.9990   16.9600 N   0  0  0  0  0  0  0  0  0  0  0  0
    4.4400   25.4340   16.7900 C   0  0  0  0  0  0  0  0  0  0  0  0
  2  1  1  0
  3  2  1  0
  4  2  1  0
  5  4  1  0
  6  4  1  0
  7  6  1  0
  8  6  1  0
  9  8  1  0
  9  3  1  0
 10  9  1  0
 11 10  1  0
 12 11  1  0
 13 11  1  0
 14 13  1  0
 15 14  1  0
 16 15  1  0
 16 12  1  0
 17 16  1  0
 18 17  1  0
 19 18  1  0
 20 19  1  0
 21 20  1  0
 22 18  1  0
 22 21  1  0
M  END
$$$$
