
     RDKit          3D

 44 49  0  0  0  0  0  0  0  0999 V2000
   -4.0340   50.6900   -5.4540 O   0  0  0  0  0  0  0  0  0  0  0  0
   -4.7860   51.6510   -5.7280 C   0  0  0  0  0  0  0  0  0  0  0  0
   -6.1260   51.6640   -5.5640 N   0  0  0  0  0  0  0  0  0  0  0  0
   -6.8280   50.5610   -5.2320 C   0  0  1  0  0  0  0  0  0  0  0  0
   -8.0950   50.4230   -5.8030 C   0  0  0  0  0  0  0  0  0  0  0  0
   -8.8510   49.2580   -5.6170 C   0  0  0  0  0  0  0  0  0  0  0  0
   -8.3980   48.2180   -4.8730 N   0  0  0  0  0  0  0  0  0  0  0  0
   -7.1530   48.3160   -4.3270 C   0  0  0  0  0  0  0  0  0  0  0  0
   -6.3360   49.4720   -4.4960 C   0  0  0  0  0  0  0  0  0  0  0  0
   -4.1990   52.9210   -6.3510 C   0  0  1  0  0  0  0  0  0  0  0  0
   -4.0970   52.8520   -7.8740 C   0  0  0  0  0  0  0  0  0  0  0  0
   -5.4540   52.5960   -8.4440 C   0  0  0  0  0  0  0  0  0  0  0  0
   -6.0460   51.2960   -8.7970 C   0  0  0  0  0  0  0  0  0  0  0  0
   -5.5640   50.0140   -8.7630 C   0  0  0  0  0  0  0  0  0  0  0  0
   -6.4240   49.0040   -9.2010 C   0  0  0  0  0  0  0  0  0  0  0  0
   -7.7210   49.2720   -9.6490 C   0  0  0  0  0  0  0  0  0  0  0  0
   -8.2420   50.5570   -9.6910 C   0  0  0  0  0  0  0  0  0  0  0  0
   -7.4130   51.5990   -9.2820 C   0  0  0  0  0  0  0  0  0  0  0  0
   -7.5630   52.9410   -9.2040 N   0  0  0  0  0  0  0  0  0  0  0  0
   -6.4450   53.5470   -8.7110 C   0  0  0  0  0  0  0  0  0  0  0  0
   -4.9010   54.1410   -6.0160 N   0  0  0  0  0  0  0  0  0  0  0  0
   -4.8070   54.6550   -4.8050 C   0  0  0  0  0  0  0  0  0  0  0  0
   -4.2060   54.0470   -3.9560 O   0  0  0  0  0  0  0  0  0  0  0  0
   -5.3980   55.9720   -4.4280 C   0  0  0  0  0  0  0  0  0  0  0  0
   -5.9040   56.9610   -5.3990 C   0  0  0  0  0  0  0  0  0  0  0  0
   -5.8820   56.7060   -6.7010 F   0  0  0  0  0  0  0  0  0  0  0  0
   -6.4450   58.1520   -4.9590 C   0  0  0  0  0  0  0  0  0  0  0  0
   -6.5060   58.4290   -3.5940 C   0  0  0  0  0  0  0  0  0  0  0  0
   -6.0020   57.5180   -2.6700 C   0  0  0  0  0  0  0  0  0  0  0  0
   -5.4600   56.3090   -3.0800 C   0  0  0  0  0  0  0  0  0  0  0  0
   -7.0250   59.6260   -3.1400 N   0  0  0  0  0  0  0  0  0  0  0  0
   -8.2440   60.1290   -3.7590 C   0  0  0  0  0  0  0  0  0  0  0  0
   -8.0950   61.6340   -3.6720 C   0  0  0  0  0  0  0  0  0  0  0  0
   -8.3360   61.8160   -2.2470 N   0  0  0  0  0  0  0  0  0  0  0  0
   -7.5570   61.0530   -1.2680 C   0  0  0  0  0  0  0  0  0  0  0  0
   -6.4050   60.3630   -2.0320 C   0  0  0  0  0  0  0  0  0  0  0  0
   -9.3900   62.6520   -1.8790 C   0  0  0  0  0  0  0  0  0  0  0  0
  -10.6130   62.2770   -2.4380 C   0  0  0  0  0  0  0  0  0  0  0  0
  -11.7710   62.9870   -2.2070 C   0  0  0  0  0  0  0  0  0  0  0  0
  -11.7010   64.0880   -1.3970 C   0  0  0  0  0  0  0  0  0  0  0  0
  -12.8390   64.7450   -1.1940 F   0  0  0  0  0  0  0  0  0  0  0  0
  -10.4200   64.5280   -0.7830 C   0  0  0  0  0  0  0  0  0  0  0  0
  -10.4210   65.6350    0.0050 F   0  0  0  0  0  0  0  0  0  0  0  0
   -9.2670   63.7790   -1.0530 C   0  0  0  0  0  0  0  0  0  0  0  0
  2  1  1  0
  3  2  1  0
  4  3  1  6
  5  4  1  0
  6  5  1  0
  7  6  1  0
  8  7  1  0
  9  8  1  0
  9  4  1  0
 10  2  1  0
 10 11  1  6
 12 11  1  0
 13 12  1  0
 14 13  1  0
 15 14  1  0
 16 15  1  0
 17 16  1  0
 18 17  1  0
 18 13  1  0
 19 18  1  0
 20 19  1  0
 20 12  1  0
 21 10  1  0
 22 21  1  0
 23 22  1  0
 24 22  1  0
 25 24  1  0
 26 25  1  0
 27 25  1  0
 28 27  1  0
 29 28  1  0
 30 29  1  0
 30 24  1  0
 31 28  1  0
 32 31  1  0
 33 32  1  0
 34 33  1  0
 35 34  1  0
 36 31  1  0
 36 35  1  0
 37 34  1  0
 38 37  1  0
 39 38  1  0
 40 39  1  0
 41 40  1  0
 42 40  1  0
 43 42  1  0
 44 42  1  0
 44 37  1  0
M  END
$$$$
