
     RDKit          3D

 44 49  0  0  0  0  0  0  0  0999 V2000
   -7.9780   63.9930   -0.8190 C   0  0  0  0  0  0  0  0  0  0  0  0
   -5.5610   56.7660   -6.9790 F   0  0  0  0  0  0  0  0  0  0  0  0
   -8.4500   61.7530   -2.8820 N   0  0  0  0  0  0  0  0  0  0  0  0
   -3.8700   54.1700   -4.3080 O   0  0  0  0  0  0  0  0  0  0  0  0
  -13.4120   62.6600   -3.2150 Cl  0  0  0  0  0  0  0  0  0  0  0  0
   -9.3040   63.6480   -1.4180 C   0  0  0  0  0  0  0  0  0  0  0  0
   -6.6900   59.7680   -3.5560 N   0  0  0  0  0  0  0  0  0  0  0  0
   -4.0570   50.6670   -5.6590 O   0  0  0  0  0  0  0  0  0  0  0  0
  -10.4120   64.3630   -1.0190 C   0  0  0  0  0  0  0  0  0  0  0  0
   -4.9150   54.0380   -6.2040 N   0  0  0  0  0  0  0  0  0  0  0  0
  -11.6620   64.0640   -1.5510 C   0  0  0  0  0  0  0  0  0  0  0  0
   -7.5270   53.1010   -9.2750 N   0  0  0  0  0  0  0  0  0  0  0  0
  -11.8120   63.0650   -2.4950 C   0  0  0  0  0  0  0  0  0  0  0  0
   -6.1260   51.5800   -5.7820 N   0  0  0  0  0  0  0  0  0  0  0  0
  -10.7370   62.3260   -2.9370 C   0  0  0  0  0  0  0  0  0  0  0  0
   -8.3760   48.1720   -5.0710 N   0  0  0  0  0  0  0  0  0  0  0  0
   -9.4780   62.5840   -2.4510 C   0  0  2  0  0  0  0  0  0  0  0  0
   -8.3490   61.3000   -4.2450 C   0  0  0  0  0  0  0  0  0  0  0  0
   -6.9200   60.8470   -4.5030 C   0  0  0  0  0  0  0  0  0  0  0  0
   -7.0030   59.9400   -2.1430 C   0  0  0  0  0  0  0  0  0  0  0  0
   -7.5380   61.3010   -1.8570 C   0  0  0  0  0  0  0  0  0  0  0  0
   -6.2010   58.5160   -3.9520 C   0  0  0  0  0  0  0  0  0  0  0  0
   -5.8510   57.5670   -2.9870 C   0  0  0  0  0  0  0  0  0  0  0  0
   -5.3670   56.3140   -3.3690 C   0  0  0  0  0  0  0  0  0  0  0  0
   -5.2750   55.9420   -4.7060 C   0  0  2  0  0  0  0  0  0  0  0  0
   -4.6950   54.6210   -5.0640 C   0  0  2  0  0  0  0  0  0  0  0  0
   -4.1620   52.8650   -6.5890 C   0  0  2  0  0  0  0  0  0  0  0  0
   -4.0270   52.8210   -8.1260 C   0  0  0  0  0  0  0  0  0  0  0  0
   -5.4130   52.6460   -8.6590 C   0  0  2  0  0  0  0  0  0  0  0  0
   -6.3500   53.6430   -8.8420 C   0  0  0  0  0  0  0  0  0  0  0  0
   -7.4610   51.7750   -9.3940 C   0  0  0  0  0  0  0  0  0  0  0  0
   -8.3650   50.7890   -9.7830 C   0  0  0  0  0  0  0  0  0  0  0  0
   -7.9540   49.4540   -9.7990 C   0  0  0  0  0  0  0  0  0  0  0  0
   -6.6640   49.1100   -9.4170 C   0  0  0  0  0  0  0  0  0  0  0  0
   -5.7310   50.0730   -9.0030 C   0  0  0  0  0  0  0  0  0  0  0  0
   -6.1030   51.3910   -9.0050 C   0  0  0  0  0  0  0  0  0  0  0  0
   -4.7840   51.6020   -5.9600 C   0  0  0  0  0  0  0  0  0  0  0  0
   -6.8100   50.4660   -5.4580 C   0  0  2  0  0  0  0  0  0  0  0  0
   -6.2780   49.3140   -4.8730 C   0  0  0  0  0  0  0  0  0  0  0  0
   -7.0990   48.1860   -4.6930 C   0  0  0  0  0  0  0  0  0  0  0  0
   -8.8810   49.2720   -5.6350 C   0  0  0  0  0  0  0  0  0  0  0  0
   -8.1300   50.4100   -5.8470 C   0  0  0  0  0  0  0  0  0  0  0  0
   -5.6480   56.9710   -5.7060 C   0  0  0  0  0  0  0  0  0  0  0  0
   -6.0950   58.2010   -5.3060 C   0  0  0  0  0  0  0  0  0  0  0  0
  6  1  1  0
  9  6  1  0
 11  9  1  0
 13 11  1  0
 13  5  1  0
 15 13  1  0
 17 15  1  0
 17  6  1  0
 17  3  1  1
 18  3  1  0
 19  7  1  0
 19 18  1  0
 20  7  1  0
 21 20  1  0
 21  3  1  0
 22  7  1  0
 23 22  1  0
 24 23  1  0
 25 24  1  1
 26 10  1  0
 26  4  1  6
 26 25  1  0
 27 10  1  0
 27 28  1  6
 29 28  1  1
 30 12  1  0
 30 29  1  0
 31 12  1  0
 32 31  1  0
 33 32  1  0
 34 33  1  0
 35 34  1  0
 36 35  1  0
 36 31  1  0
 36 29  1  0
 37 14  1  0
 37 27  1  0
 37  8  1  0
 38 14  1  6
 39 38  1  0
 40 16  1  0
 40 39  1  0
 41 16  1  0
 42 41  1  0
 42 38  1  0
 43  2  1  0
 43 25  1  0
 44 43  1  0
 44 22  1  0
M  END
$$$$
