
     RDKit          3D

 20 19  0  0  0  0  0  0  0  0999 V2000
    8.1230   10.1680   22.1200 C   0  0  0  0  0  0  0  0  0  0  0  0
    7.3490   10.9490   21.7330 O   0  0  0  0  0  0  0  0  0  0  0  0
    7.9760    9.5480   23.1720 O   0  0  0  0  0  0  0  0  0  0  0  0
    9.3100   10.0050   21.2610 C   0  0  0  0  0  0  0  0  0  0  0  0
   10.4070   10.7960   21.8850 C   0  0  0  0  0  0  0  0  0  0  0  0
   11.1740   11.7280   20.9850 C   0  0  0  0  0  0  0  0  0  0  0  0
   11.1140   13.0750   21.6560 C   0  0  0  0  0  0  0  0  0  0  0  0
   10.2440   13.9860   20.8400 C   0  0  0  0  0  0  0  0  0  0  0  0
    8.8180   13.5120   20.5590 C   0  0  0  0  0  0  0  0  0  0  0  0
    8.3450   13.0430   19.1810 C   0  0  0  0  0  0  0  0  0  0  0  0
    9.3870   12.5260   18.2090 C   0  0  0  0  0  0  0  0  0  0  0  0
   10.3410   13.1470   17.5230 C   0  0  0  0  0  0  0  0  0  0  0  0
   10.7030   14.6010   17.5610 C   0  0  0  0  0  0  0  0  0  0  0  0
    9.5700   15.5630   17.2720 C   0  0  0  0  0  0  0  0  0  0  0  0
    9.0300   16.2290   18.5260 C   0  0  0  0  0  0  0  0  0  0  0  0
    9.1720   17.6980   18.3780 C   0  0  0  0  0  0  0  0  0  0  0  0
    9.6210   18.4230   19.6110 C   0  0  0  0  0  0  0  0  0  0  0  0
   10.9140   19.0780   19.2560 C   0  0  0  0  0  0  0  0  0  0  0  0
   11.5730   18.3120   18.1220 C   0  0  0  0  0  0  0  0  0  0  0  0
   12.6780   17.3520   18.4960 C   0  0  0  0  0  0  0  0  0  0  0  0
  2  1  1  0
  3  1  1  0
  4  1  1  0
  5  4  1  0
  6  5  1  0
  7  6  1  0
  8  7  1  0
  9  8  1  0
 10  9  1  0
 11 10  1  0
 12 11  1  0
 13 12  1  0
 14 13  1  0
 15 14  1  0
 16 15  1  0
 17 16  1  0
 18 17  1  0
 19 18  1  0
 20 19  1  0
M  END
$$$$
