
     RDKit          3D

 22 25  0  0  0  0  0  0  0  0999 V2000
   -6.2390   23.2260   15.0890 C   0  0  0  0  0  0  0  0  0  0  0  0
   -4.6690   22.9430   16.9050 C   0  0  1  0  0  0  0  0  0  0  0  0
   -4.9630   22.2540   18.3750 C   0  0  0  0  0  0  0  0  0  0  0  0
   -6.2310   22.9720   18.8380 C   0  0  0  0  0  0  0  0  0  0  0  0
   -6.8930   23.4040   17.6940 C   0  0  0  0  0  0  0  0  0  0  0  0
   -3.7470   21.9920   16.1180 C   0  0  0  0  0  0  0  0  0  0  0  0
   -5.0560   22.9730   14.1390 C   0  0  2  0  0  0  0  0  0  0  0  0
   -5.5070   22.5460   12.7380 C   0  0  0  0  0  0  0  0  0  0  0  0
   -4.2620   22.1520   11.9250 C   0  0  0  0  0  0  0  0  0  0  0  0
   -3.8520   20.8740   11.5780 C   0  0  0  0  0  0  0  0  0  0  0  0
   -2.3180   22.2840   10.8130 C   0  0  0  0  0  0  0  0  0  0  0  0
   -1.1960   22.9020   10.2060 C   0  0  0  0  0  0  0  0  0  0  0  0
   -1.0560   24.2870   10.2600 C   0  0  0  0  0  0  0  0  0  0  0  0
   -2.0490   25.0550   10.8560 C   0  0  1  0  0  0  0  0  0  0  0  0
   -3.1500   24.4610   11.4670 C   0  0  0  0  0  0  0  0  0  0  0  0
   -3.2800   23.0480   11.4270 C   0  0  0  0  0  0  0  0  0  0  0  0
   -1.9420   26.4090   10.9160 F   0  0  0  0  0  0  0  0  0  0  0  0
   -5.8760   23.1620   16.4180 N   0  0  0  0  0  0  0  0  0  0  0  0
   -3.9970   22.0060   14.6360 N   0  0  0  0  0  0  0  0  0  0  0  0
   -2.7080   20.9770   10.9230 N   0  0  0  0  0  0  0  0  0  0  0  0
   -7.3390   23.4630   14.7300 O   0  0  0  0  0  0  0  0  0  0  0  0
   -2.8950   21.2990   16.5970 O   0  0  0  0  0  0  0  0  0  0  0  0
  2  3  1  1
  4  3  1  0
  5  4  1  0
  6  2  1  0
  7  1  1  0
  7  8  1  6
  9  8  1  0
 10  9  1  0
 12 11  1  0
 13 12  1  0
 14 13  1  0
 15 14  1  0
 16 11  1  0
 16 15  1  0
 16  9  1  0
 14 17  1  1
 18  1  1  0
 18  5  1  0
 18  2  1  0
 19  7  1  0
 19  6  1  0
 20 10  1  0
 20 11  1  0
 21  1  1  0
 22  6  1  0
M  END
$$$$
