
     RDKit          3D

 56 58  0  0  0  0  0  0  0  0999 V2000
  -23.9420  -26.8190   -4.8000 C   0  0  0  0  0  0  0  0  0  0  0  0
  -23.1750  -27.9590   -5.4640 C   0  0  1  0  0  0  0  0  0  0  0  0
  -24.0130  -29.2180   -5.3010 C   0  0  1  0  0  0  0  0  0  0  0  0
  -23.2260  -30.3280   -5.9660 C   0  0  2  0  0  0  0  0  0  0  0  0
  -21.9420  -30.5170   -5.1840 C   0  0  0  0  0  0  0  0  0  0  0  0
  -24.2100  -29.5080   -3.9140 O   0  0  0  0  0  0  0  0  0  0  0  0
  -25.4570  -29.0940   -3.2670 C   0  0  0  0  0  0  0  0  0  0  0  0
  -25.6350  -27.9310   -3.0150 O   0  0  0  0  0  0  0  0  0  0  0  0
  -26.4200  -29.9400   -2.8820 C   0  0  0  0  0  0  0  0  0  0  0  0
  -26.3850  -31.2560   -3.0620 C   0  0  0  0  0  0  0  0  0  0  0  0
  -27.5550  -32.0810   -2.5850 C   0  0  2  0  0  0  0  0  0  0  0  0
  -27.8040  -31.7330   -1.1290 C   0  0  0  0  0  0  0  0  0  0  0  0
  -27.2940  -33.5760   -2.6820 C   0  0  1  0  0  0  0  0  0  0  0  0
  -28.3760  -34.2550   -2.0500 O   0  0  0  0  0  0  0  0  0  0  0  0
  -27.1870  -34.0800   -4.1080 C   0  0  2  0  0  0  0  0  0  0  0  0
  -28.3950  -33.6590   -4.9250 C   0  0  0  0  0  0  0  0  0  0  0  0
  -27.1000  -35.5720   -4.0360 C   0  0  0  0  0  0  0  0  0  0  0  0
  -28.0980  -36.2450   -4.1220 O   0  0  0  0  0  0  0  0  0  0  0  0
  -25.7800  -36.2390   -3.8310 C   0  0  2  0  0  0  0  0  0  0  0  0
  -25.0020  -35.3940   -2.8250 C   0  0  0  0  0  0  0  0  0  0  0  0
  -25.0610  -36.4400   -5.1660 C   0  0  1  0  0  0  0  0  0  0  0  0
  -25.3140  -35.3510   -6.0500 O   0  0  0  0  0  0  0  0  0  0  0  0
  -23.5570  -36.5740   -4.9800 C   0  0  2  0  0  0  0  0  0  0  0  0
  -22.9300  -35.2050   -4.7820 C   0  0  0  0  0  0  0  0  0  0  0  0
  -22.9190  -37.2470   -6.1490 C   0  0  0  0  0  0  0  0  0  0  0  0
  -23.4450  -37.2200   -7.2390 O   0  0  0  0  0  0  0  0  0  0  0  0
  -21.6140  -37.9680   -5.9620 C   0  0  2  0  0  0  0  0  0  0  0  0
  -21.9120  -39.2200   -5.1620 C   0  0  0  0  0  0  0  0  0  0  0  0
  -20.6980  -37.1550   -5.2270 O   0  0  0  0  0  0  0  0  0  0  0  0
  -21.0030  -38.3800   -7.2950 C   0  0  1  0  0  0  0  0  0  0  0  0
  -21.4230  -37.5400   -8.3750 O   0  0  0  0  0  0  0  0  0  0  0  0
  -19.4840  -38.5020   -7.2300 C   0  0  2  0  0  0  0  0  0  0  0  0
  -19.1360  -39.4350   -6.0850 C   0  0  0  0  0  0  0  0  0  0  0  0
  -18.7060  -37.2110   -7.0490 C   0  0  0  0  0  0  0  0  0  0  0  0
  -19.2010  -36.0810   -7.8990 C   0  0  0  0  0  0  0  0  0  0  0  0
  -18.9310  -34.8610   -7.4670 C   0  0  0  0  0  0  0  0  0  0  0  0
  -19.3180  -33.7880   -8.1330 C   0  0  0  0  0  0  0  0  0  0  0  0
  -19.0330  -32.5720   -7.6820 C   0  0  0  0  0  0  0  0  0  0  0  0
  -19.4950  -31.3710   -8.4710 C   0  0  2  0  0  0  0  0  0  0  0  0
  -18.3140  -30.4690   -8.8220 C   0  0  0  0  0  0  0  0  0  0  0  0
  -17.7630  -30.7130  -10.2140 C   0  0  0  0  0  0  0  0  0  0  0  0
  -20.4840  -30.5920   -7.6280 C   0  0  0  0  0  0  0  0  0  0  0  0
  -21.8760  -30.6050   -8.2370 C   0  0  0  0  0  0  0  0  0  0  0  0
  -23.0750  -30.0230   -7.4720 C   0  0  2  0  0  0  0  0  0  0  0  0
  -23.2460  -28.6430   -7.8240 O   0  0  0  0  0  0  0  0  0  0  0  0
  -22.7150  -27.6910   -6.9140 C   0  0  1  0  0  0  0  0  0  0  0  0
  -23.1760  -26.3970   -7.3520 O   0  0  0  0  0  0  0  0  0  0  0  0
  -21.2190  -27.8890   -7.1080 C   0  0  0  0  0  0  0  0  0  0  0  0
  -20.8860  -27.2920   -8.4860 C   0  0  0  0  0  0  0  0  0  0  0  0
  -21.6120  -26.0110   -8.9330 C   0  0  2  0  0  0  0  0  0  0  0  0
  -20.6780  -25.0140   -9.5850 C   0  0  0  0  0  0  0  0  0  0  0  0
  -22.2930  -25.3560   -7.7660 C   0  0  2  0  0  0  0  0  0  0  0  0
  -21.2060  -25.0580   -6.7370 C   0  0  0  0  0  0  0  0  0  0  0  0
  -21.3990  -25.6510   -5.3450 C   0  0  1  0  0  0  0  0  0  0  0  0
  -20.2000  -26.4440   -4.8660 C   0  0  0  0  0  0  0  0  0  0  0  0
  -21.5750  -24.6010   -4.3980 O   0  0  0  0  0  0  0  0  0  0  0  0
  2  1  1  6
  3  2  1  0
  4  3  1  0
  4  5  1  1
  3  6  1  1
  7  6  1  0
  8  7  1  0
  9  7  1  0
 10  9  1  0
 11 10  1  0
 11 12  1  1
 13 11  1  0
 13 14  1  6
 15 13  1  0
 15 16  1  6
 17 15  1  0
 18 17  1  0
 19 17  1  0
 19 20  1  1
 21 19  1  0
 21 22  1  6
 23 21  1  0
 23 24  1  6
 25 23  1  0
 26 25  1  0
 27 25  1  0
 27 28  1  1
 29 27  1  0
 30 27  1  0
 30 31  1  6
 32 30  1  0
 32 33  1  1
 34 32  1  0
 35 34  1  0
 36 35  1  0
 37 36  1  0
 38 37  1  0
 39 38  1  0
 39 40  1  1
 41 40  1  0
 42 39  1  0
 43 42  1  0
 44 43  1  1
 44  4  1  0
 45 44  1  0
 46 45  1  0
 46  2  1  0
 47 46  1  0
 46 48  1  1
 49 48  1  0
 50 49  1  0
 50 51  1  1
 52 47  1  0
 52 50  1  0
 52 53  1  1
 54 53  1  0
 54 55  1  1
 56 54  1  0
M  END
$$$$
