
     RDKit          3D

 21 21  0  0  0  0  0  0  0  0999 V2000
  -26.7400    7.3530  -18.2500 C   0  0  1  0  0  0  0  0  0  0  0  0
  -26.1210    7.7850  -16.9160 C   0  0  0  0  0  0  0  0  0  0  0  0
  -24.6990    8.3090  -17.0540 C   0  0  0  0  0  0  0  0  0  0  0  0
  -24.5800    9.4440  -18.0640 C   0  0  0  0  0  0  0  0  0  0  0  0
  -25.6420    9.4400  -19.1440 C   0  0  2  0  0  0  0  0  0  0  0  0
  -26.4840    8.4080  -19.3230 C   0  0  2  0  0  0  0  0  0  0  0  0
  -27.2730    8.2490  -20.5290 C   0  0  0  0  0  0  0  0  0  0  0  0
  -26.7470    7.9180  -21.6800 C   0  0  0  0  0  0  0  0  0  0  0  0
  -27.3970    7.7130  -22.9550 C   0  0  0  0  0  0  0  0  0  0  0  0
  -26.6340    7.2820  -23.9810 C   0  0  0  0  0  0  0  0  0  0  0  0
  -27.0230    6.9790  -25.3290 C   0  0  0  0  0  0  0  0  0  0  0  0
  -26.1340    6.3720  -26.1090 C   0  0  0  0  0  0  0  0  0  0  0  0
  -26.2490    5.9420  -27.4840 C   0  0  0  0  0  0  0  0  0  0  0  0
  -25.3430    5.0440  -27.9360 C   0  0  0  0  0  0  0  0  0  0  0  0
  -25.2320    4.4700  -29.2480 C   0  0  0  0  0  0  0  0  0  0  0  0
  -24.3730    3.6650  -29.5480 O   0  0  0  0  0  0  0  0  0  0  0  0
  -26.1130    6.0210  -18.6760 C   0  0  0  0  0  0  0  0  0  0  0  0
  -28.2460    7.1490  -18.0640 C   0  0  0  0  0  0  0  0  0  0  0  0
  -25.4870   10.5760  -20.1190 C   0  0  0  0  0  0  0  0  0  0  0  0
  -28.8710    7.9880  -23.0630 C   0  0  0  0  0  0  0  0  0  0  0  0
  -27.3470    6.5240  -28.3330 C   0  0  0  0  0  0  0  0  0  0  0  0
  2  1  1  0
  3  2  1  0
  4  3  1  0
  5  4  1  0
  6  5  1  0
  6  1  1  0
  6  7  1  1
  8  7  1  0
  9  8  1  0
 10  9  1  0
 11 10  1  0
 12 11  1  0
 13 12  1  0
 14 13  1  0
 15 14  1  0
 16 15  1  0
  1 17  1  6
 18  1  1  0
  5 19  1  6
 20  9  1  0
 21 13  1  0
M  END
$$$$
