
     RDKit          3D

 21 20  0  0  0  0  0  0  0  0999 V2000
   -0.6010   32.9270   26.2520 O   0  0  0  0  0  0  0  0  0  0  0  0
   -1.1950   32.0820   25.5070 C   0  0  0  0  0  0  0  0  0  0  0  0
   -2.4250   31.8110   25.6010 O   0  0  0  0  0  0  0  0  0  0  0  0
   -0.4110   31.3110   24.4530 C   0  0  0  0  0  0  0  0  0  0  0  0
    0.9360   30.7580   24.9580 C   0  0  0  0  0  0  0  0  0  0  0  0
    0.8070   29.8610   26.1930 C   0  0  0  0  0  0  0  0  0  0  0  0
   -0.1460   28.6920   25.9170 C   0  0  0  0  0  0  0  0  0  0  0  0
   -0.1610   27.7220   27.0880 C   0  0  0  0  0  0  0  0  0  0  0  0
   -1.3350   26.7450   26.9770 C   0  0  0  0  0  0  0  0  0  0  0  0
   -1.3500   25.8520   28.1970 C   0  0  0  0  0  0  0  0  0  0  0  0
   -1.9540   26.5280   29.4240 C   0  0  0  0  0  0  0  0  0  0  0  0
   -1.2710   26.8250   30.5470 C   0  0  0  0  0  0  0  0  0  0  0  0
    0.0500   26.6930   30.7530 C   0  0  0  0  0  0  0  0  0  0  0  0
    0.5730   27.1110   31.9160 C   0  0  0  0  0  0  0  0  0  0  0  0
    2.0510   27.2960   32.2330 C   0  0  1  0  0  0  0  0  0  0  0  0
    2.3490   26.5760   33.4500 O   0  0  0  0  0  0  0  0  0  0  0  0
    2.9850   26.8080   31.1390 C   0  0  0  0  0  0  0  0  0  0  0  0
    3.1020   27.8320   30.0170 C   0  0  0  0  0  0  0  0  0  0  0  0
    4.2000   27.4410   29.0410 C   0  0  0  0  0  0  0  0  0  0  0  0
    3.8070   26.3560   28.0710 C   0  0  0  0  0  0  0  0  0  0  0  0
    5.0440   26.0070   27.2600 C   0  0  0  0  0  0  0  0  0  0  0  0
  2  1  1  0
  3  2  1  0
  4  2  1  0
  5  4  1  0
  6  5  1  0
  7  6  1  0
  8  7  1  0
  9  8  1  0
 10  9  1  0
 11 10  1  0
 12 11  1  0
 13 12  1  0
 14 13  1  0
 15 14  1  0
 15 16  1  1
 17 15  1  0
 18 17  1  0
 19 18  1  0
 20 19  1  0
 21 20  1  0
M  END
$$$$
