
     RDKit          3D

 15 16  0  0  0  0  0  0  0  0999 V2000
   49.5360   69.5380   61.9230 O   0  0  0  0  0  0  0  0  0  0  0  0
   50.6960   69.9170   61.7680 C   0  0  0  0  0  0  0  0  0  0  0  0
   51.2710   69.9460   60.5000 C   0  0  0  0  0  0  0  0  0  0  0  0
   50.5370   69.5140   59.3980 C   0  0  0  0  0  0  0  0  0  0  0  0
   51.1230   69.4990   58.1360 C   0  0  0  0  0  0  0  0  0  0  0  0
   50.4270   69.0150   57.0710 O   0  0  0  0  0  0  0  0  0  0  0  0
   52.4370   69.9230   57.9740 C   0  0  0  0  0  0  0  0  0  0  0  0
   53.1730   70.3550   59.0750 C   0  0  0  0  0  0  0  0  0  0  0  0
   54.4660   70.7400   58.9030 O   0  0  0  0  0  0  0  0  0  0  0  0
   52.5910   70.3650   60.3400 C   0  0  0  0  0  0  0  0  0  0  0  0
   53.3330   70.7570   61.4530 C   0  0  0  0  0  0  0  0  0  0  0  0
   54.4970   71.1340   61.3240 O   0  0  0  0  0  0  0  0  0  0  0  0
   52.7580   70.7270   62.7200 C   0  0  0  0  0  0  0  0  0  0  0  0
   51.4400   70.3070   62.8790 C   0  0  0  0  0  0  0  0  0  0  0  0
   50.8780   70.2570   64.1160 O   0  0  0  0  0  0  0  0  0  0  0  0
  2  1  1  0
  3  2  1  0
  4  3  1  0
  5  4  1  0
  6  5  1  0
  7  5  1  0
  8  7  1  0
  9  8  1  0
 10  8  1  0
 10  3  1  0
 11 10  1  0
 12 11  1  0
 13 11  1  0
 14 13  1  0
 14  2  1  0
 15 14  1  0
M  END
$$$$
