
     RDKit          3D

 22 25  0  0  0  0  0  0  0  0999 V2000
    4.8320   30.4540   -6.8080 C   0  0  1  0  0  0  0  0  0  0  0  0
    2.2610   30.5580  -10.2400 C   0  0  0  0  0  0  0  0  0  0  0  0
    3.4180   28.6030   -9.3710 C   0  0  0  0  0  0  0  0  0  0  0  0
    3.2960   30.0110   -9.5150 C   0  0  0  0  0  0  0  0  0  0  0  0
    7.1030   29.9750   -6.1680 O   0  0  0  0  0  0  0  0  0  0  0  0
    6.7890   30.0820   -3.5130 C   0  0  0  0  0  0  0  0  0  0  0  0
    3.5110   31.5390   -4.8270 C   0  0  0  0  0  0  0  0  0  0  0  0
    5.3330   30.9490   -8.1520 C   0  0  0  0  0  0  0  0  0  0  0  0
    4.0700   31.1080   -9.0470 C   0  0  0  0  0  0  0  0  0  0  0  0
    1.3050   29.6960  -10.8520 C   0  0  0  0  0  0  0  0  0  0  0  0
    1.3980   28.3120  -10.7000 C   0  0  0  0  0  0  0  0  0  0  0  0
    2.4650   27.7620   -9.9630 C   0  0  0  0  0  0  0  0  0  0  0  0
    5.9950   30.2270   -5.8210 C   0  0  0  0  0  0  0  0  0  0  0  0
    4.3790   30.5760   -3.9900 C   0  0  2  0  0  0  0  0  0  0  0  0
    4.9120   31.2870   -2.5870 C   0  0  0  0  0  0  0  0  0  0  0  0
    6.2770   30.6030   -2.3130 C   0  0  0  0  0  0  0  0  0  0  0  0
    3.4740   32.2880   -9.5050 C   0  0  0  0  0  0  0  0  0  0  0  0
    0.2820   30.2420  -11.5580 F   0  0  0  0  0  0  0  0  0  0  0  0
    5.5010   30.3190   -4.5480 N   0  0  0  0  0  0  0  0  0  0  0  0
    3.7780   31.4630   -6.3480 N   0  0  0  0  0  0  0  0  0  0  0  0
    2.3880   31.9360  -10.2160 N   0  0  0  0  0  0  0  0  0  0  0  0
    2.7040   32.2970   -4.3700 O   0  0  0  0  0  0  0  0  0  0  0  0
  4  3  1  0
  4  2  1  0
  1  8  1  6
  9  8  1  0
  9  4  1  0
 10  2  1  0
 11 10  1  0
 12 11  1  0
 12  3  1  0
 13  1  1  0
 13  5  1  0
 14  7  1  0
 14 15  1  1
 16 15  1  0
 16  6  1  0
 17  9  1  0
 18 10  1  0
 19 14  1  0
 19 13  1  0
 19  6  1  0
 20  1  1  0
 20  7  1  0
 21 17  1  0
 21  2  1  0
 22  7  1  0
M  END
$$$$
