
     RDKit          3D

 33 39  0  0  0  0  0  0  0  0999 V2000
    9.1150   45.8300   23.5170 C   0  0  0  0  0  0  0  0  0  0  0  0
    7.9190   46.1300   24.1580 C   0  0  0  0  0  0  0  0  0  0  0  0
    7.9290   46.9500   25.2890 C   0  0  0  0  0  0  0  0  0  0  0  0
    9.1320   47.4680   25.7800 C   0  0  0  0  0  0  0  0  0  0  0  0
   10.3510   47.1630   25.1300 C   0  0  0  0  0  0  0  0  0  0  0  0
   12.4150   48.3400   26.3690 C   0  0  0  0  0  0  0  0  0  0  0  0
   14.5670   47.8580   25.2950 C   0  0  0  0  0  0  0  0  0  0  0  0
   11.7540   47.5230   25.3630 C   0  0  0  0  0  0  0  0  0  0  0  0
   13.7970   48.5050   26.3410 C   0  0  0  0  0  0  0  0  0  0  0  0
   15.9890   47.8190   24.9700 C   0  0  0  0  0  0  0  0  0  0  0  0
   16.1380   47.0330   23.8530 C   0  0  0  0  0  0  0  0  0  0  0  0
   17.4390   46.8210   23.3130 C   0  0  0  0  0  0  0  0  0  0  0  0
   18.5440   47.4060   23.9160 C   0  0  0  0  0  0  0  0  0  0  0  0
   18.3870   48.2070   25.0520 C   0  0  0  0  0  0  0  0  0  0  0  0
   17.1110   48.4160   25.5790 C   0  0  0  0  0  0  0  0  0  0  0  0
   12.1220   42.9050   20.8450 C   0  0  0  0  0  0  0  0  0  0  0  0
   13.2920   43.7040   21.3700 C   0  0  1  0  0  0  0  0  0  0  0  0
   13.7230   44.7150   20.3130 C   0  0  1  0  0  0  0  0  0  0  0  0
   12.6560   45.7230   20.0480 C   0  0  1  0  0  0  0  0  0  0  0  0
   12.2160   46.3890   21.2810 C   0  0  0  0  0  0  0  0  0  0  0  0
   11.8850   45.4180   22.4020 C   0  0  2  0  0  0  0  0  0  0  0  0
   10.3370   46.3590   24.0180 C   0  0  0  0  0  0  0  0  0  0  0  0
   13.9480   47.0780   24.3310 C   0  0  0  0  0  0  0  0  0  0  0  0
   12.4860   46.8990   24.3590 C   0  0  0  0  0  0  0  0  0  0  0  0
   14.2050   49.4150   27.5170 C   0  0  0  0  0  0  0  0  0  0  0  0
   11.8800   49.1420   27.5740 C   0  0  0  0  0  0  0  0  0  0  0  0
   11.6160   46.1990   23.5670 N   0  0  0  0  0  0  0  0  0  0  0  0
   14.8990   46.5940   23.4800 N   0  0  0  0  0  0  0  0  0  0  0  0
   13.0030   49.7780   28.2420 N   0  0  0  0  0  0  0  0  0  0  0  0
   13.2040   46.7930   19.1170 N   0  0  0  0  0  0  0  0  0  0  0  0
   12.9300   44.3690   22.6230 O   0  0  0  0  0  0  0  0  0  0  0  0
   10.7440   49.2260   27.9000 O   0  0  0  0  0  0  0  0  0  0  0  0
   14.8940   45.4090   20.7870 O   0  0  0  0  0  0  0  0  0  0  0  0
  2  1  1  0
  3  2  1  0
  4  3  1  0
  5  4  1  0
  8  5  1  0
  8  6  1  0
  9  7  1  0
  9  6  1  0
 10  7  1  0
 11 10  1  0
 12 11  1  0
 13 12  1  0
 14 13  1  0
 15 10  1  0
 15 14  1  0
 17 16  1  6
 18 17  1  0
 19 18  1  0
 20 19  1  0
 21 20  1  0
 22  5  1  0
 22  1  1  0
 23  7  1  0
 24 23  1  0
 24  8  1  0
 25  9  1  0
 26  6  1  0
 27 22  1  0
 27 24  1  0
 21 27  1  1
 28 23  1  0
 28 11  1  0
 29 26  1  0
 29 25  1  0
 19 30  1  6
 31 17  1  0
 31 21  1  0
 32 26  1  0
 18 33  1  1
M  END
$$$$
