
     RDKit          3D

 28 30  0  0  0  0  0  0  0  0999 V2000
   -6.6910    4.0320  -12.8610 C   0  0  1  0  0  0  0  0  0  0  0  0
   -8.0620    4.3530  -13.4330 C   0  0  0  0  0  0  0  0  0  0  0  0
   -7.9140    5.3970  -14.5120 C   0  0  0  0  0  0  0  0  0  0  0  0
   -6.7290    5.1850  -15.4260 C   0  0  0  0  0  0  0  0  0  0  0  0
   -5.7150    4.3450  -15.1290 C   0  0  0  0  0  0  0  0  0  0  0  0
   -4.5600    4.2720  -16.0300 C   0  0  0  0  0  0  0  0  0  0  0  0
   -3.4690    3.5440  -15.7020 C   0  0  0  0  0  0  0  0  0  0  0  0
   -3.3460    2.7930  -14.4100 C   0  0  2  0  0  0  0  0  0  0  0  0
   -3.6120    1.2930  -14.5710 C   0  0  0  0  0  0  0  0  0  0  0  0
   -4.2770    3.4000  -13.3400 C   0  0  1  0  0  0  0  0  0  0  0  0
   -5.7100    3.4920  -13.9010 C   0  0  1  0  0  0  0  0  0  0  0  0
   -4.1790    2.6120  -12.0140 C   0  0  0  0  0  0  0  0  0  0  0  0
   -2.7090    2.7360  -11.5480 C   0  0  0  0  0  0  0  0  0  0  0  0
   -2.4510    1.9280  -10.2990 C   0  0  2  0  0  0  0  0  0  0  0  0
   -1.0700    2.3470   -9.7880 C   0  0  0  0  0  0  0  0  0  0  0  0
   -0.6910    1.5620   -8.5530 C   0  0  1  0  0  0  0  0  0  0  0  0
   -1.6900    1.7910   -7.5580 O   0  0  0  0  0  0  0  0  0  0  0  0
   -0.6700    0.0880   -8.9130 C   0  0  0  0  0  0  0  0  0  0  0  0
   -1.9210   -0.3710   -9.6960 C   0  0  2  0  0  0  0  0  0  0  0  0
   -1.4710   -1.5180  -10.3980 O   0  0  0  0  0  0  0  0  0  0  0  0
   -2.4820    0.5480  -10.6590 O   0  0  0  0  0  0  0  0  0  0  0  0
   -6.1380    5.2270  -12.2930 O   0  0  0  0  0  0  0  0  0  0  0  0
   -6.3840    5.4810  -10.8990 C   0  0  0  0  0  0  0  0  0  0  0  0
   -6.9910    4.6790  -10.1990 O   0  0  0  0  0  0  0  0  0  0  0  0
   -5.8030    6.7940  -10.4190 C   0  0  1  0  0  0  0  0  0  0  0  0
   -6.7790    7.5780   -9.5550 C   0  0  0  0  0  0  0  0  0  0  0  0
   -4.4900    6.4840   -9.7300 C   0  0  0  0  0  0  0  0  0  0  0  0
   -4.7580    5.7420   -8.4660 C   0  0  0  0  0  0  0  0  0  0  0  0
  2  1  1  0
  3  2  1  0
  4  3  1  0
  5  4  1  0
  6  5  1  0
  7  6  1  0
  8  7  1  0
  8  9  1  6
 10  8  1  0
 11  5  1  6
 11  1  1  0
 11 10  1  0
 10 12  1  1
 13 12  1  0
 14 13  1  6
 15 14  1  0
 16 15  1  0
 16 17  1  1
 18 16  1  0
 19 18  1  0
 19 20  1  6
 21 19  1  0
 21 14  1  0
  1 22  1  6
 23 22  1  0
 24 23  1  0
 25 23  1  0
 25 26  1  1
 27 25  1  0
 28 27  1  0
M  END
$$$$
