
     RDKit          3D

 28 32  0  0  0  0  0  0  0  0999 V2000
  -18.7190   40.0040  -21.3160 N   0  0  0  0  0  0  0  0  0  0  0  0
  -21.3290   34.8440  -21.2950 C   0  0  0  0  0  0  0  0  0  0  0  0
  -20.8670   34.0730  -22.0910 O   0  0  0  0  0  0  0  0  0  0  0  0
  -20.9690   36.3310  -21.4270 C   0  0  2  0  0  0  0  0  0  0  0  0
  -17.4930   40.4920  -23.6210 C   0  0  0  0  0  0  0  0  0  0  0  0
  -22.8380   35.1770  -19.2300 C   0  0  1  0  0  0  0  0  0  0  0  0
  -22.3360   34.8320  -17.7980 C   0  0  0  0  0  0  0  0  0  0  0  0
  -22.5830   36.6730  -19.4480 C   0  0  0  0  0  0  0  0  0  0  0  0
  -19.4600   36.5220  -21.2320 C   0  0  0  0  0  0  0  0  0  0  0  0
  -19.0020   37.9930  -21.5610 C   0  0  0  0  0  0  0  0  0  0  0  0
  -20.7710   34.7930  -17.6240 C   0  0  0  0  0  0  0  0  0  0  0  0
  -20.1900   33.6860  -17.8260 C   0  0  0  0  0  0  0  0  0  0  0  0
  -18.7400   35.3550  -17.2120 C   0  0  0  0  0  0  0  0  0  0  0  0
  -20.0630   35.7800  -17.2600 C   0  0  0  0  0  0  0  0  0  0  0  0
  -20.3590   37.1230  -16.9350 C   0  0  0  0  0  0  0  0  0  0  0  0
  -19.2270   38.9470  -20.7060 C   0  0  0  0  0  0  0  0  0  0  0  0
  -19.3200   38.0060  -16.5750 C   0  0  0  0  0  0  0  0  0  0  0  0
  -18.0010   37.5640  -16.5310 C   0  0  0  0  0  0  0  0  0  0  0  0
  -17.6990   36.2380  -16.8440 C   0  0  0  0  0  0  0  0  0  0  0  0
  -18.1320   39.7820  -22.5990 C   0  0  0  0  0  0  0  0  0  0  0  0
  -18.3550   38.3640  -22.7220 C   0  0  0  0  0  0  0  0  0  0  0  0
  -17.9190   37.7300  -23.8860 C   0  0  0  0  0  0  0  0  0  0  0  0
  -17.2780   38.4370  -24.9160 C   0  0  0  0  0  0  0  0  0  0  0  0
  -17.0580   39.8320  -24.7910 C   0  0  0  0  0  0  0  0  0  0  0  0
  -21.7040   37.1540  -20.4910 N   0  0  0  0  0  0  0  0  0  0  0  0
  -22.2150   34.3720  -20.2490 N   0  0  0  0  0  0  0  0  0  0  0  0
  -18.8090   33.9070  -17.6110 N   0  0  0  0  0  0  0  0  0  0  0  0
  -23.1280   37.4490  -18.7470 O   0  0  0  0  0  0  0  0  0  0  0  0
  3  2  1  0
  4  2  1  0
  6  7  1  1
  8  6  1  0
  4  9  1  1
 10  9  1  0
 11  7  1  0
 12 11  1  0
 14 13  1  0
 14 11  1  0
 15 14  1  0
 16 10  1  0
 16  1  1  0
 17 15  1  0
 18 17  1  0
 19 18  1  0
 19 13  1  0
 20  5  1  0
 20  1  1  0
 21 10  1  0
 21 20  1  0
 22 21  1  0
 23 22  1  0
 24 23  1  0
 24  5  1  0
 25  8  1  0
 25  4  1  0
 26  6  1  0
 26  2  1  0
 27 13  1  0
 27 12  1  0
 28  8  1  0
M  END
$$$$
