
     RDKit          3D

 21 23  0  0  0  0  0  0  0  0999 V2000
   12.3820  -13.2690    9.2880 C   0  0  0  0  0  0  0  0  0  0  0  0
   19.5830  -15.4190    9.0180 C   0  0  1  0  0  0  0  0  0  0  0  0
   20.7510  -14.4450    8.8990 C   0  0  1  0  0  0  0  0  0  0  0  0
   22.0520  -15.1670    8.5430 C   0  0  0  0  0  0  0  0  0  0  0  0
   14.0870  -12.3700    7.5710 N   0  0  0  0  0  0  0  0  0  0  0  0
   18.1540  -16.3880    7.1020 C   0  0  0  0  0  0  0  0  0  0  0  0
   18.1270  -17.0560    6.1170 O   0  0  0  0  0  0  0  0  0  0  0  0
   16.8620  -15.7530    7.6300 C   0  0  2  0  0  0  0  0  0  0  0  0
   20.4330  -13.3820    7.8480 C   0  0  0  0  0  0  0  0  0  0  0  0
   18.3590  -14.5650    9.3490 C   0  0  0  0  0  0  0  0  0  0  0  0
   16.0160  -15.0960    6.5100 C   0  0  0  0  0  0  0  0  0  0  0  0
   15.0110  -14.0900    7.1280 C   0  0  0  0  0  0  0  0  0  0  0  0
   15.0450  -12.8200    6.8310 C   0  0  0  0  0  0  0  0  0  0  0  0
   13.4140  -13.2650    8.3730 C   0  0  0  0  0  0  0  0  0  0  0  0
   14.0770  -14.5250    8.0420 C   0  0  0  0  0  0  0  0  0  0  0  0
   13.6830  -15.6920    8.6590 C   0  0  0  0  0  0  0  0  0  0  0  0
   12.6340  -15.6870    9.5900 C   0  0  0  0  0  0  0  0  0  0  0  0
   12.0010  -14.4580    9.9090 C   0  0  0  0  0  0  0  0  0  0  0  0
   17.0970  -14.7620    8.6730 N   0  0  0  0  0  0  0  0  0  0  0  0
   19.4220  -16.2040    7.7870 N   0  0  0  0  0  0  0  0  0  0  0  0
   18.4350  -13.7110   10.1920 O   0  0  0  0  0  0  0  0  0  0  0  0
  3  2  1  0
  3  4  1  6
  7  6  1  0
  8  6  1  0
  9  3  1  0
 10  2  1  0
  8 11  1  6
 12 11  1  0
 13 12  1  0
 13  5  1  0
 14  5  1  0
 14  1  1  0
 15 14  1  0
 15 12  1  0
 16 15  1  0
 17 16  1  0
 18 17  1  0
 18  1  1  0
 19 10  1  0
 19  8  1  0
 20  6  1  0
  2 20  1  6
 21 10  1  0
M  END
$$$$
