
     RDKit          3D

 11 12  0  0  0  0  0  0  0  0999 V2000
  -18.9170  -19.7630   -6.5950 C   0  0  0  0  0  0  0  0  0  0  0  0
  -19.6270  -19.3330   -5.5370 N   0  0  0  0  0  0  0  0  0  0  0  0
  -18.7950  -18.5680   -4.7720 C   0  0  0  0  0  0  0  0  0  0  0  0
  -17.6780  -19.3050   -6.5640 N   0  0  0  0  0  0  0  0  0  0  0  0
  -17.5840  -18.5410   -5.4040 C   0  0  0  0  0  0  0  0  0  0  0  0
  -16.3330  -17.8710   -5.0310 C   0  0  0  0  0  0  0  0  0  0  0  0
  -15.2660  -17.7920   -5.9230 C   0  0  0  0  0  0  0  0  0  0  0  0
  -16.2080  -17.2620   -3.7850 C   0  0  0  0  0  0  0  0  0  0  0  0
  -15.0470  -16.5890   -3.4440 C   0  0  0  0  0  0  0  0  0  0  0  0
  -13.9950  -16.5280   -4.3330 C   0  0  0  0  0  0  0  0  0  0  0  0
  -14.1020  -17.1310   -5.5690 C   0  0  0  0  0  0  0  0  0  0  0  0
  2  1  1  0
  3  2  1  0
  4  1  1  0
  5  4  1  0
  5  3  1  0
  6  5  1  0
  7  6  1  0
  8  6  1  0
  9  8  1  0
 10  9  1  0
 11  7  1  0
 11 10  1  0
M  END
$$$$
