
     RDKit          3D

 11 11  0  0  0  0  0  0  0  0999 V2000
    8.1960   -0.1760    5.1420 O   0  0  0  0  0  0  0  0  0  0  0  0
    7.9680    0.9660    4.4380 C   0  0  0  0  0  0  0  0  0  0  0  0
    7.5970    0.8660    3.0910 C   0  0  0  0  0  0  0  0  0  0  0  0
    7.4900   -0.3950    2.5960 O   0  0  0  0  0  0  0  0  0  0  0  0
    6.9190   -0.5410    1.3230 C   0  0  0  0  0  0  0  0  0  0  0  0
    7.3570    2.0270    2.3430 C   0  0  0  0  0  0  0  0  0  0  0  0
    7.4650    3.2670    2.9530 C   0  0  0  0  0  0  0  0  0  0  0  0
    7.8420    3.3760    4.2830 C   0  0  0  0  0  0  0  0  0  0  0  0
    8.0950    2.2320    5.0240 C   0  0  0  0  0  0  0  0  0  0  0  0
    8.4530    2.1760    6.3400 O   0  0  0  0  0  0  0  0  0  0  0  0
    8.2980    3.3370    7.1360 C   0  0  0  0  0  0  0  0  0  0  0  0
  2  1  1  0
  3  2  1  0
  4  3  1  0
  5  4  1  0
  6  3  1  0
  7  6  1  0
  8  7  1  0
  9  8  1  0
  9  2  1  0
 10  9  1  0
 11 10  1  0
M  END
$$$$
