
     RDKit          3D

 21 22  0  0  0  0  0  0  0  0999 V2000
   15.7780   11.5430   19.0620 Cl  0  0  0  0  0  0  0  0  0  0  0  0
   17.7630    9.7770   18.5650 C   0  0  0  0  0  0  0  0  0  0  0  0
   18.9270    9.3670   17.9390 C   0  0  0  0  0  0  0  0  0  0  0  0
   19.5750   10.1780   17.0160 C   0  0  0  0  0  0  0  0  0  0  0  0
   19.0280   11.4230   16.7370 C   0  0  0  0  0  0  0  0  0  0  0  0
   17.8670   11.8490   17.3600 C   0  0  0  0  0  0  0  0  0  0  0  0
   17.2440   11.0160   18.2690 C   0  0  0  0  0  0  0  0  0  0  0  0
   20.8380    9.7030   16.3350 C   0  0  0  0  0  0  0  0  0  0  0  0
   21.4910   10.7370   15.4060 C   0  0  0  0  0  0  0  0  0  0  0  0
   22.9980   10.9850   15.6680 C   0  0  1  0  0  0  0  0  0  0  0  0
   22.9950   12.0930   16.7240 C   0  0  0  0  0  0  0  0  0  0  0  0
   24.2690   12.4000   17.3620 N   0  0  0  0  0  0  0  0  0  0  0  0
   25.0250   11.6430   18.1420 C   0  0  0  0  0  0  0  0  0  0  0  0
   26.1150   12.2780   18.5040 N   0  0  0  0  0  0  0  0  0  0  0  0
   25.9660   13.4710   17.8860 C   0  0  0  0  0  0  0  0  0  0  0  0
   24.8660   13.6090   17.1820 N   0  0  0  0  0  0  0  0  0  0  0  0
   23.6150    9.8170   16.2220 O   0  0  0  0  0  0  0  0  0  0  0  0
   23.8240   11.2540   14.3740 C   0  0  1  0  0  0  0  0  0  0  0  0
   25.3270   11.2670   14.6750 C   0  0  0  0  0  0  0  0  0  0  0  0
   23.5760   10.1620   13.3280 C   0  0  0  0  0  0  0  0  0  0  0  0
   23.4580   12.6160   13.7720 C   0  0  0  0  0  0  0  0  0  0  0  0
  3  2  1  0
  4  3  1  0
  5  4  1  0
  6  5  1  0
  7  1  1  0
  7  2  1  0
  7  6  1  0
  8  4  1  0
  9  8  1  0
 10  9  1  0
 11 10  1  0
 12 11  1  0
 13 12  1  0
 14 13  1  0
 15 14  1  0
 16 15  1  0
 16 12  1  0
 10 17  1  1
 18 10  1  0
 18 19  1  1
 20 18  1  0
 21 18  1  0
M  END
$$$$
