
     RDKit          3D

 20 22  0  0  0  0  0  0  0  0999 V2000
   25.3480   12.4340   13.3080 C   0  0  0  0  0  0  0  0  0  0  0  0
   24.1470   12.1470   13.9280 C   0  0  0  0  0  0  0  0  0  0  0  0
   23.9120   10.9460   14.5910 C   0  0  0  0  0  0  0  0  0  0  0  0
   24.9620   10.0300   14.6180 C   0  0  0  0  0  0  0  0  0  0  0  0
   26.1730   10.3030   14.0040 C   0  0  0  0  0  0  0  0  0  0  0  0
   26.3650   11.5000   13.3450 C   0  0  0  0  0  0  0  0  0  0  0  0
   22.8990   13.3430   13.8810 Cl  0  0  0  0  0  0  0  0  0  0  0  0
   22.5860   10.5880   15.2140 C   0  0  0  0  0  0  0  0  0  0  0  0
   22.4170   10.7470   16.7440 C   0  0  2  0  0  0  0  0  0  0  0  0
   23.1970    9.7800   17.4590 O   0  0  0  0  0  0  0  0  0  0  0  0
   20.9640   10.5310   17.1200 C   0  0  2  0  0  0  0  0  0  0  0  0
   20.4970    9.8890   18.3870 C   0  0  0  0  0  0  0  0  0  0  0  0
   20.1880    9.2560   17.0540 C   0  0  0  0  0  0  0  0  0  0  0  0
   20.0190   12.0020   16.6580 Cl  0  0  0  0  0  0  0  0  0  0  0  0
   22.7530   12.1630   17.2130 C   0  0  0  0  0  0  0  0  0  0  0  0
   24.1720   12.4160   17.4000 N   0  0  0  0  0  0  0  0  0  0  0  0
   24.7650   13.5080   16.8620 N   0  0  0  0  0  0  0  0  0  0  0  0
   25.9860   13.4200   17.3370 C   0  0  0  0  0  0  0  0  0  0  0  0
   26.2230   12.3540   18.1250 N   0  0  0  0  0  0  0  0  0  0  0  0
   25.0590   11.7510   18.1330 C   0  0  0  0  0  0  0  0  0  0  0  0
  2  1  1  0
  3  2  1  0
  4  3  1  0
  5  4  1  0
  6  5  1  0
  6  1  1  0
  7  2  1  0
  8  3  1  0
  9  8  1  0
  9 10  1  1
 11  9  1  0
 12 11  1  0
 13 12  1  0
 13 11  1  0
 11 14  1  6
 15  9  1  0
 16 15  1  0
 17 16  1  0
 18 17  1  0
 19 18  1  0
 20 19  1  0
 20 16  1  0
M  END
$$$$
