
     RDKit          3D

 25 28  0  0  0  0  0  0  0  0999 V2000
   -9.0750  -20.6510  -16.2720 C   0  0  0  0  0  0  0  0  0  0  0  0
   -9.2590  -20.9340  -17.6310 C   0  0  0  0  0  0  0  0  0  0  0  0
   -8.9440  -19.9620  -18.5770 C   0  0  0  0  0  0  0  0  0  0  0  0
   -8.4440  -18.7320  -18.1840 C   0  0  0  0  0  0  0  0  0  0  0  0
   -8.2830  -18.4930  -16.8430 C   0  0  0  0  0  0  0  0  0  0  0  0
   -8.5900  -19.4070  -15.8670 C   0  0  0  0  0  0  0  0  0  0  0  0
   -7.7880  -17.2880  -16.4570 F   0  0  0  0  0  0  0  0  0  0  0  0
   -9.3410  -21.6870  -15.2710 C   0  0  0  0  0  0  0  0  0  0  0  0
   -9.7710  -22.9060  -15.7980 N   0  0  0  0  0  0  0  0  0  0  0  0
   -9.9800  -23.0730  -17.1580 C   0  0  2  0  0  0  0  0  0  0  0  0
   -9.7240  -22.1740  -18.0700 N   0  0  0  0  0  0  0  0  0  0  0  0
  -10.6280  -24.2560  -17.5680 N   0  0  0  0  0  0  0  0  0  0  0  0
  -11.8830  -24.5920  -17.0930 N   0  0  0  0  0  0  0  0  0  0  0  0
  -12.0870  -25.7530  -17.6780 C   0  0  0  0  0  0  0  0  0  0  0  0
  -11.0900  -26.1820  -18.4840 N   0  0  0  0  0  0  0  0  0  0  0  0
  -10.1990  -25.2190  -18.3860 C   0  0  0  0  0  0  0  0  0  0  0  0
   -9.2190  -21.5440  -14.0710 O   0  0  0  0  0  0  0  0  0  0  0  0
   -9.8900  -24.0160  -14.8840 C   0  0  0  0  0  0  0  0  0  0  0  0
  -11.0010  -24.1970  -14.1020 C   0  0  0  0  0  0  0  0  0  0  0  0
  -11.1030  -25.2830  -13.2240 C   0  0  0  0  0  0  0  0  0  0  0  0
  -10.0320  -26.1440  -13.1690 C   0  0  1  0  0  0  0  0  0  0  0  0
   -8.9120  -25.9940  -13.9410 C   0  0  0  0  0  0  0  0  0  0  0  0
   -8.8400  -24.9150  -14.8090 C   0  0  0  0  0  0  0  0  0  0  0  0
  -12.3120  -23.0680  -14.1410 Cl  0  0  0  0  0  0  0  0  0  0  0  0
  -10.0830  -27.4450  -12.0000 Cl  0  0  0  0  0  0  0  0  0  0  0  0
  2  1  1  0
  3  2  1  0
  4  3  1  0
  5  4  1  0
  6  5  1  0
  6  1  1  0
  7  5  1  0
  8  1  1  0
  9  8  1  0
 10  9  1  0
 11 10  1  0
 11  2  1  0
 10 12  1  1
 13 12  1  0
 14 13  1  0
 15 14  1  0
 16 15  1  0
 16 12  1  0
 17  8  1  0
 18  9  1  0
 19 18  1  0
 20 19  1  0
 21 20  1  0
 22 21  1  0
 23 22  1  0
 23 18  1  0
 24 19  1  0
 21 25  1  1
M  END
$$$$
