
     RDKit          3D

 16 15  0  0  0  0  0  0  0  0999 V2000
   42.0710   -2.0040    9.6460 C   0  0  2  0  0  0  0  0  0  0  0  0
   42.8840   -1.3660    8.9240 O   0  0  0  0  0  0  0  0  0  0  0  0
   40.8810   -2.1400    9.3560 O   0  0  0  0  0  0  0  0  0  0  0  0
   42.3530   -2.0550   11.1000 C   0  0  0  0  0  0  0  0  0  0  0  0
   41.5520   -0.8780   11.5680 C   0  0  0  0  0  0  0  0  0  0  0  0
   41.2720   -1.0050   13.0260 C   0  0  0  0  0  0  0  0  0  0  0  0
   42.4520   -0.7360   13.8840 C   0  0  0  0  0  0  0  0  0  0  0  0
   43.0650    0.5250   13.3870 C   0  0  0  0  0  0  0  0  0  0  0  0
   43.5430    1.3830   14.4980 C   0  0  0  0  0  0  0  0  0  0  0  0
   44.5020    0.6320   15.3720 C   0  0  0  0  0  0  0  0  0  0  0  0
   45.5600    0.0420   14.4720 C   0  0  0  0  0  0  0  0  0  0  0  0
   46.6380   -0.6120   15.2330 C   0  0  0  0  0  0  0  0  0  0  0  0
   47.4940   -1.3340   14.2150 C   0  0  0  0  0  0  0  0  0  0  0  0
   46.9220   -2.7260   13.9880 C   0  0  0  0  0  0  0  0  0  0  0  0
   47.7840   -3.6320   13.1260 C   0  0  0  0  0  0  0  0  0  0  0  0
   48.7150   -4.5430   13.8820 C   0  0  0  0  0  0  0  0  0  0  0  0
  1  2  1  1
  3  1  1  0
  4  1  1  0
  5  4  1  0
  6  5  1  0
  7  6  1  0
  8  7  1  0
  9  8  1  0
 10  9  1  0
 11 10  1  0
 12 11  1  0
 13 12  1  0
 14 13  1  0
 15 14  1  0
 16 15  1  0
M  END
$$$$
