
     RDKit          3D

 29 32  0  0  0  0  0  0  0  0999 V2000
  -27.4190  -25.3980   14.1040 C   0  0  1  0  0  0  0  0  0  0  0  0
  -26.4430  -23.3070   12.9970 C   0  0  0  0  0  0  0  0  0  0  0  0
  -25.5950  -22.7010   11.8750 C   0  0  0  0  0  0  0  0  0  0  0  0
  -24.2670  -23.4440   11.7240 C   0  0  1  0  0  0  0  0  0  0  0  0
  -24.6140  -24.9110   11.3810 C   0  0  1  0  0  0  0  0  0  0  0  0
  -23.2650  -25.5030   10.9630 C   0  0  0  0  0  0  0  0  0  0  0  0
  -22.4800  -24.3200   10.3540 C   0  0  0  0  0  0  0  0  0  0  0  0
  -23.4010  -23.0800   10.4850 C   0  0  2  0  0  0  0  0  0  0  0  0
  -23.4320  -23.3360   13.0100 C   0  0  0  0  0  0  0  0  0  0  0  0
  -26.7060  -24.8110   12.8450 C   0  0  1  0  0  0  0  0  0  0  0  0
  -26.6410  -25.0650   15.3950 C   0  0  0  0  0  0  0  0  0  0  0  0
  -28.8240  -24.7790   14.1810 C   0  0  0  0  0  0  0  0  0  0  0  0
  -29.8050  -25.4780   15.1200 C   0  0  0  0  0  0  0  0  0  0  0  0
  -29.9150  -26.9470   14.8050 C   0  0  2  0  0  0  0  0  0  0  0  0
  -30.7920  -27.5750   15.7460 O   0  0  0  0  0  0  0  0  0  0  0  0
  -28.5410  -27.5780   14.8860 C   0  0  0  0  0  0  0  0  0  0  0  0
  -27.5330  -26.9130   13.9970 C   0  0  0  0  0  0  0  0  0  0  0  0
  -26.7640  -27.6370   13.1760 C   0  0  0  0  0  0  0  0  0  0  0  0
  -25.8010  -27.0530   12.2460 C   0  0  0  0  0  0  0  0  0  0  0  0
  -25.3440  -27.7370   11.3530 O   0  0  0  0  0  0  0  0  0  0  0  0
  -25.4320  -25.5970   12.4750 C   0  0  1  0  0  0  0  0  0  0  0  0
  -22.6760  -21.7180   10.4040 C   0  0  2  0  0  0  0  0  0  0  0  0
  -22.7980  -21.0530    9.0360 C   0  0  0  0  0  0  0  0  0  0  0  0
  -21.2030  -21.7720   10.8400 C   0  0  0  0  0  0  0  0  0  0  0  0
  -20.6720  -20.4620   11.3780 C   0  0  0  0  0  0  0  0  0  0  0  0
  -19.2330  -20.5120   11.8030 C   0  0  0  0  0  0  0  0  0  0  0  0
  -18.6780  -19.2310   12.4110 C   0  0  2  0  0  0  0  0  0  0  0  0
  -17.1610  -19.2130   12.3750 C   0  0  0  0  0  0  0  0  0  0  0  0
  -19.1720  -19.0270   13.8270 C   0  0  0  0  0  0  0  0  0  0  0  0
  3  2  1  0
  4  3  1  0
  5  4  1  0
  5  6  1  1
  7  6  1  0
  8  7  1  1
  8  4  1  0
  4  9  1  1
 10  1  1  0
 10  2  1  1
  1 11  1  1
 12  1  1  0
 13 12  1  0
 14 13  1  0
 14 15  1  1
 16 14  1  0
 17 16  1  0
 17  1  1  0
 18 17  1  0
 19 18  1  0
 20 19  1  0
 21 19  1  6
 21 10  1  0
 21  5  1  0
 22  8  1  0
 22 23  1  6
 24 22  1  0
 25 24  1  0
 26 25  1  0
 27 26  1  0
 27 28  1  1
 29 27  1  0
M  END
$$$$
