
     RDKit          3D

 15 16  0  0  0  0  0  0  0  0999 V2000
   48.6450   25.6330   72.2370 N   0  0  0  0  0  0  0  0  0  0  0  0
   48.1060   25.8860   70.8940 C   0  0  2  0  0  0  0  0  0  0  0  0
   47.1000   27.0210   70.8280 C   0  0  0  0  0  0  0  0  0  0  0  0
   46.9180   27.5990   69.6600 O   0  0  0  0  0  0  0  0  0  0  0  0
   47.4470   24.5830   70.4450 C   0  0  0  0  0  0  0  0  0  0  0  0
   48.4650   23.4350   70.1720 C   0  0  0  0  0  0  0  0  0  0  0  0
   48.7700   22.3830   70.9690 C   0  0  0  0  0  0  0  0  0  0  0  0
   49.2750   23.2870   68.9700 C   0  0  0  0  0  0  0  0  0  0  0  0
   49.7110   21.5890   70.3530 N   0  0  0  0  0  0  0  0  0  0  0  0
   50.0530   22.1160   69.1340 C   0  0  0  0  0  0  0  0  0  0  0  0
   49.3910   24.0330   67.7890 C   0  0  0  0  0  0  0  0  0  0  0  0
   50.9520   21.6700   68.1320 C   0  0  0  0  0  0  0  0  0  0  0  0
   50.2290   23.6400   66.8640 C   0  0  0  0  0  0  0  0  0  0  0  0
   51.0430   22.4810   67.0340 C   0  0  0  0  0  0  0  0  0  0  0  0
   46.5430   27.3300   71.9790 O   0  0  0  0  0  0  0  0  0  0  0  0
  2  1  1  1
  3  2  1  0
  4  3  1  0
  5  2  1  0
  6  5  1  0
  7  6  1  0
  8  6  1  0
  9  7  1  0
 10  9  1  0
 10  8  1  0
 11  8  1  0
 12 10  1  0
 13 11  1  0
 14 12  1  0
 14 13  1  0
 15  3  1  0
M  END
$$$$
