
     RDKit          3D

 28 30  0  0  0  0  0  0  0  0999 V2000
   32.1570  -33.9930   89.7020 C   0  0  1  0  0  0  0  0  0  0  0  0
   33.1390  -33.5770   90.7920 C   0  0  1  0  0  0  0  0  0  0  0  0
   32.6760  -34.9650   88.6320 C   0  0  1  0  0  0  0  0  0  0  0  0
   34.8310  -34.8970   89.8000 C   0  0  2  0  0  0  0  0  0  0  0  0
   33.0600  -34.4460   92.0510 C   0  0  0  0  0  0  0  0  0  0  0  0
   32.4150  -34.4090   87.2270 C   0  0  2  0  0  0  0  0  0  0  0  0
   34.6720  -35.9370   90.8850 C   0  0  0  0  0  0  0  0  0  0  0  0
   30.9670  -34.6300   90.3910 C   0  0  0  0  0  0  0  0  0  0  0  0
   33.8500  -35.7230   91.9190 C   0  0  0  0  0  0  0  0  0  0  0  0
   36.2570  -34.8310   89.2670 C   0  0  0  0  0  0  0  0  0  0  0  0
   31.1800  -35.0620   86.6070 C   0  0  0  0  0  0  0  0  0  0  0  0
   33.6440  -34.5130   86.3220 C   0  0  0  0  0  0  0  0  0  0  0  0
   35.4060  -37.2400   90.8040 C   0  0  0  0  0  0  0  0  0  0  0  0
   34.3100  -35.5760   85.8120 C   0  0  0  0  0  0  0  0  0  0  0  0
   33.9480  -37.0100   86.0690 C   0  0  0  0  0  0  0  0  0  0  0  0
   35.5010  -35.3170   84.9770 C   0  0  0  0  0  0  0  0  0  0  0  0
   36.0480  -36.3300   84.3120 C   0  0  0  0  0  0  0  0  0  0  0  0
   37.2590  -36.2030   83.4790 C   0  0  0  0  0  0  0  0  0  0  0  0
   37.6070  -37.3190   82.5470 C   0  0  1  0  0  0  0  0  0  0  0  0
   38.6090  -37.4100   81.4840 C   0  0  0  0  0  0  0  0  0  0  0  0
   38.7170  -38.7310   80.7870 C   0  0  0  0  0  0  0  0  0  0  0  0
   37.1450  -38.7340   82.5030 C   0  0  2  0  0  0  0  0  0  0  0  0
   37.7010  -39.5130   81.5310 N   0  0  0  0  0  0  0  0  0  0  0  0
   34.4560  -33.5990   90.2570 O   0  0  0  0  0  0  0  0  0  0  0  0
   34.0480  -35.3400   88.7040 O   0  0  0  0  0  0  0  0  0  0  0  0
   38.0170  -35.1100   83.5530 O   0  0  0  0  0  0  0  0  0  0  0  0
   39.3310  -36.4040   81.1450 O   0  0  0  0  0  0  0  0  0  0  0  0
   36.2170  -39.1810   83.2710 O   0  0  0  0  0  0  0  0  0  0  0  0
  2  1  1  0
  3  1  1  0
  2  5  1  1
  6  3  1  0
  7  4  1  0
  1  8  1  1
  9  7  1  0
  9  5  1  0
  4 10  1  6
  6 11  1  6
 12  6  1  0
 13  7  1  0
 14 12  1  0
 15 14  1  0
 16 14  1  0
 17 16  1  0
 18 17  1  0
 19 18  1  1
 20 19  1  0
 21 20  1  0
 22 19  1  0
 23 22  1  0
 23 21  1  0
 24  4  1  0
 24  2  1  0
  3 25  1  1
 25  4  1  0
 26 18  1  0
 27 20  1  0
 22 28  1  6
M  END
$$$$
