
     RDKit          3D

 19 18  0  0  0  0  0  0  0  0999 V2000
   14.2190   -1.9840   19.7220 C   0  0  2  0  0  0  0  0  0  0  0  0
   14.6420   -0.6740   20.3920 C   0  0  0  0  0  0  0  0  0  0  0  0
   14.9330    0.2830   19.6670 O   0  0  0  0  0  0  0  0  0  0  0  0
   13.7050   -3.0990   20.6200 C   0  0  2  0  0  0  0  0  0  0  0  0
   13.1510   -4.2560   19.7970 C   0  0  2  0  0  0  0  0  0  0  0  0
   11.6330   -4.3310   19.7660 C   0  0  2  0  0  0  0  0  0  0  0  0
   11.1200   -5.4430   18.8490 C   0  0  2  0  0  0  0  0  0  0  0  0
   14.6530   -0.6570   21.6460 O   0  0  0  0  0  0  0  0  0  0  0  0
   14.9750   -2.3110   19.2090 H   0  0  0  0  0  0  0  0  0  0  0  0
   13.5440   -1.7710   19.0580 H   0  0  0  0  0  0  0  0  0  0  0  0
   13.0150   -2.7600   21.2120 H   0  0  0  0  0  0  0  0  0  0  0  0
   14.4150   -3.4190   21.1970 H   0  0  0  0  0  0  0  0  0  0  0  0
   13.5000   -5.0920   20.1440 H   0  0  0  0  0  0  0  0  0  0  0  0
   13.4820   -4.1900   18.8880 H   0  0  0  0  0  0  0  0  0  0  0  0
   11.2760   -3.4770   19.4760 H   0  0  0  0  0  0  0  0  0  0  0  0
   11.3000   -4.4700   20.6660 H   0  0  0  0  0  0  0  0  0  0  0  0
   10.1590   -5.3800   18.7280 H   0  0  0  0  0  0  0  0  0  0  0  0
   11.3160   -6.3180   19.2190 H   0  0  0  0  0  0  0  0  0  0  0  0
   11.5330   -5.3920   17.9730 H   0  0  0  0  0  0  0  0  0  0  0  0
  2  1  1  0
  3  2  1  0
  4  1  1  0
  5  4  1  0
  6  5  1  0
  7  6  1  0
  8  2  1  0
  1  9  1  6
 10  1  1  0
  4 11  1  1
 12  4  1  0
  5 13  1  1
 14  5  1  0
  6 15  1  6
 16  6  1  0
  7 17  1  6
 18  7  1  0
 19  7  1  0
M  END
$$$$
