
     RDKit          3D

 49 52  0  0  0  0  0  0  0  0999 V2000
    5.4840    4.4460   12.5240 C   0  0  2  0  0  0  0  0  0  0  0  0
    4.3120    3.9870   11.6680 C   0  0  2  0  0  0  0  0  0  0  0  0
    3.0650    3.8840   12.4920 C   0  0  0  0  0  0  0  0  0  0  0  0
    1.9600    4.2260   12.0910 O   0  0  0  0  0  0  0  0  0  0  0  0
    3.2900    3.3410   13.8150 C   0  0  0  0  0  0  0  0  0  0  0  0
    4.4930    2.9210   14.2200 C   0  0  2  0  0  0  0  0  0  0  0  0
    4.5390    2.0070   15.3970 C   0  0  2  0  0  0  0  0  0  0  0  0
    5.5610    0.9090   15.1020 C   0  0  1  0  0  0  0  0  0  0  0  0
    6.9300    1.5330   14.8160 C   0  0  2  0  0  0  0  0  0  0  0  0
    6.8650    2.4870   13.5950 C   0  0  1  0  0  0  0  0  0  0  0  0
    5.7800    3.6020   13.7870 C   0  0  1  0  0  0  0  0  0  0  0  0
    8.2690    3.0020   13.2630 C   0  0  2  0  0  0  0  0  0  0  0  0
    9.3100    1.8840   13.0910 C   0  0  2  0  0  0  0  0  0  0  0  0
    9.3670    0.9650   14.3250 C   0  0  1  0  0  0  0  0  0  0  0  0
    7.9540    0.4410   14.5930 C   0  0  1  0  0  0  0  0  0  0  0  0
    8.1630   -0.6430   15.6550 C   0  0  1  0  0  0  0  0  0  0  0  0
    9.4530   -1.3390   15.1730 C   0  0  1  0  0  0  0  0  0  0  0  0
   10.0840   -0.3760   14.1440 C   0  0  2  0  0  0  0  0  0  0  0  0
   11.4870   -0.2500   14.2770 O   0  0  0  0  0  0  0  0  0  0  0  0
    9.9540    1.7170   15.5330 C   0  0  2  0  0  0  0  0  0  0  0  0
    6.2030    4.6320   14.8320 C   0  0  2  0  0  0  0  0  0  0  0  0
    5.3270    5.3640   12.7910 H   0  0  0  0  0  0  0  0  0  0  0  0
    6.2790    4.4660   11.9680 H   0  0  0  0  0  0  0  0  0  0  0  0
    4.4810    3.1190   11.2690 H   0  0  0  0  0  0  0  0  0  0  0  0
    4.1420    4.6030   10.9390 H   0  0  0  0  0  0  0  0  0  0  0  0
    2.5580    3.2900   14.3870 H   0  0  0  0  0  0  0  0  0  0  0  0
    3.6670    1.6140   15.5610 H   0  0  0  0  0  0  0  0  0  0  0  0
    4.7930    2.4910   16.1980 H   0  0  0  0  0  0  0  0  0  0  0  0
    5.6160    0.3030   15.8580 H   0  0  0  0  0  0  0  0  0  0  0  0
    5.2640    0.3830   14.3430 H   0  0  0  0  0  0  0  0  0  0  0  0
    7.2250    2.0640   15.5720 H   0  0  0  0  0  0  0  0  0  0  0  0
    6.5630    1.9700   12.8310 H   0  0  0  0  0  0  0  0  0  0  0  0
    8.5630    3.6040   13.9640 H   0  0  0  0  0  0  0  0  0  0  0  0
    8.2320    3.5300   12.4510 H   0  0  0  0  0  0  0  0  0  0  0  0
   10.1770    2.2870   12.9280 H   0  0  0  0  0  0  0  0  0  0  0  0
    9.0900    1.3730   12.2970 H   0  0  0  0  0  0  0  0  0  0  0  0
    7.6770   -0.0150   13.7840 H   0  0  0  0  0  0  0  0  0  0  0  0
    8.2640   -0.2660   16.5430 H   0  0  0  0  0  0  0  0  0  0  0  0
    7.4130   -1.2570   15.6980 H   0  0  0  0  0  0  0  0  0  0  0  0
   10.0690   -1.5040   15.9040 H   0  0  0  0  0  0  0  0  0  0  0  0
    9.2670   -2.1980   14.7620 H   0  0  0  0  0  0  0  0  0  0  0  0
    9.8400   -0.6790   13.2560 H   0  0  0  0  0  0  0  0  0  0  0  0
   11.8050   -1.0180   14.4600 H   0  0  0  0  0  0  0  0  0  0  0  0
   10.2360    1.1140   16.2390 H   0  0  0  0  0  0  0  0  0  0  0  0
    9.3140    2.3280   15.9310 H   0  0  0  0  0  0  0  0  0  0  0  0
   10.7310    2.2460   15.2950 H   0  0  0  0  0  0  0  0  0  0  0  0
    5.5380    4.6950   15.5350 H   0  0  0  0  0  0  0  0  0  0  0  0
    6.3030    5.5070   14.4260 H   0  0  0  0  0  0  0  0  0  0  0  0
    7.0500    4.3820   15.2330 H   0  0  0  0  0  0  0  0  0  0  0  0
  2  1  1  0
  3  2  1  0
  4  3  1  0
  5  3  1  0
  6  5  1  1
  7  6  1  0
  8  7  1  0
  9  8  1  0
 10  9  1  0
 11  6  1  1
 11 10  1  0
 11  1  1  0
 12 10  1  0
 13 12  1  0
 14 13  1  0
 15 14  1  0
 15  9  1  0
 16 15  1  0
 17 16  1  0
 18 17  1  0
 14 18  1  6
 19 18  1  0
 20 14  1  0
 21 11  1  0
  1 22  1  1
 23  1  1  0
  2 24  1  6
 25  2  1  0
 26  5  1  0
  7 27  1  1
 28  7  1  0
  8 29  1  1
 30  8  1  0
  9 31  1  1
 10 32  1  6
 12 33  1  1
 34 12  1  0
 13 35  1  6
 36 13  1  0
 15 37  1  6
 16 38  1  1
 39 16  1  0
 17 40  1  1
 41 17  1  0
 18 42  1  6
 43 19  1  0
 20 44  1  1
 45 20  1  0
 46 20  1  0
 21 47  1  1
 48 21  1  0
 49 21  1  0
M  END
$$$$
