
     RDKit          3D

 27 30  0  0  0  0  0  0  0  0999 V2000
   25.0520   10.9970   15.1380 C   0  0  0  0  0  0  0  0  0  0  0  0
   25.9660   11.0510   14.1040 C   0  0  0  0  0  0  0  0  0  0  0  0
   25.7430   11.9030   13.0380 C   0  0  0  0  0  0  0  0  0  0  0  0
   24.6230   12.7160   13.0220 C   0  0  0  0  0  0  0  0  0  0  0  0
   28.8690   11.6700   11.4050 C   0  0  0  0  0  0  0  0  0  0  0  0
   22.8940   11.6710   16.2620 C   0  0  1  0  0  0  0  0  0  0  0  0
   28.4980    8.9250   11.3250 C   0  0  0  0  0  0  0  0  0  0  0  0
   29.7280    9.4790   11.0470 C   0  0  0  0  0  0  0  0  0  0  0  0
   23.9100   11.7870   15.1460 C   0  0  0  0  0  0  0  0  0  0  0  0
   29.9260   10.8410   11.0830 C   0  0  0  0  0  0  0  0  0  0  0  0
   27.6240   11.1270   11.6790 C   0  0  1  0  0  0  0  0  0  0  0  0
   23.7250   12.6600   14.0710 C   0  0  0  0  0  0  0  0  0  0  0  0
   26.5750   12.0190   11.9190 O   0  0  0  0  0  0  0  0  0  0  0  0
   21.5520   11.6970   15.7920 O   0  0  0  0  0  0  0  0  0  0  0  0
   23.0510   10.4330   16.9560 O   0  0  0  0  0  0  0  0  0  0  0  0
   27.4390    9.7540   11.6430 C   0  0  0  0  0  0  0  0  0  0  0  0
   31.0610    8.4340   10.6420 Cl  0  0  0  0  0  0  0  0  0  0  0  0
   22.3760   13.7470   14.0100 Cl  0  0  0  0  0  0  0  0  0  0  0  0
   20.8060   10.7960   16.5840 C   0  0  0  0  0  0  0  0  0  0  0  0
   21.8010    9.7050   16.9070 C   0  0  2  0  0  0  0  0  0  0  0  0
   23.0190   12.8760   17.2580 C   0  0  0  0  0  0  0  0  0  0  0  0
   24.3820   13.0820   17.7310 N   0  0  0  0  0  0  0  0  0  0  0  0
   25.1520   14.0800   17.2320 N   0  0  0  0  0  0  0  0  0  0  0  0
   26.2710   13.9220   17.9030 C   0  0  0  0  0  0  0  0  0  0  0  0
   26.2740   12.9050   18.7900 N   0  0  0  0  0  0  0  0  0  0  0  0
   25.0660   12.4070   18.6460 C   0  0  0  0  0  0  0  0  0  0  0  0
   21.5580    9.0370   18.2360 C   0  0  0  0  0  0  0  0  0  0  0  0
  2  1  1  0
  3  2  1  0
  4  3  1  0
  8  7  1  0
  9  6  1  0
  9  1  1  0
 10  8  1  0
 10  5  1  0
 11  5  1  0
 12  9  1  0
 12  4  1  0
 13  3  1  0
 11 13  1  6
 14  6  1  0
 15  6  1  0
 16  7  1  0
 16 11  1  0
 17  8  1  0
 18 12  1  0
 19 14  1  0
 20 19  1  0
 20 15  1  0
  6 21  1  1
 22 21  1  0
 23 22  1  0
 24 23  1  0
 25 24  1  0
 26 25  1  0
 26 22  1  0
 20 27  1  1
M  END
$$$$
