
     RDKit          3D

 27 30  0  0  0  0  0  0  0  0999 V2000
   25.9670   11.0710   14.1530 C   0  0  0  0  0  0  0  0  0  0  0  0
   25.8030   11.9430   13.0900 C   0  0  2  0  0  0  0  0  0  0  0  0
   23.8390   12.8250   14.1210 C   0  0  0  0  0  0  0  0  0  0  0  0
   29.7370    9.4650   11.0950 C   0  0  0  0  0  0  0  0  0  0  0  0
   20.9400   10.6010   16.2550 C   0  0  0  0  0  0  0  0  0  0  0  0
   22.9660   12.9710   17.2680 C   0  0  0  0  0  0  0  0  0  0  0  0
   21.7860   10.2040   17.4410 C   0  0  2  0  0  0  0  0  0  0  0  0
   29.8550   10.8250   10.9220 C   0  0  0  0  0  0  0  0  0  0  0  0
   23.9480   11.9170   15.1760 C   0  0  2  0  0  0  0  0  0  0  0  0
   28.5560    8.8930   11.5120 C   0  0  0  0  0  0  0  0  0  0  0  0
   27.5850   11.0790   11.6370 C   0  0  0  0  0  0  0  0  0  0  0  0
   26.3150   13.7820   17.7200 C   0  0  0  0  0  0  0  0  0  0  0  0
   25.0710   12.3030   18.4770 C   0  0  0  0  0  0  0  0  0  0  0  0
   25.0400   11.0600   15.1770 C   0  0  0  0  0  0  0  0  0  0  0  0
   24.7490   12.8400   13.0840 C   0  0  0  0  0  0  0  0  0  0  0  0
   26.5560   11.9800   11.9120 O   0  0  0  0  0  0  0  0  0  0  0  0
   27.4710    9.7050   11.7820 C   0  0  0  0  0  0  0  0  0  0  0  0
   22.9300   11.7800   16.2560 C   0  0  2  0  0  0  0  0  0  0  0  0
   21.6140   11.7380   15.7210 O   0  0  0  0  0  0  0  0  0  0  0  0
   23.1040   10.5710   16.9840 O   0  0  0  0  0  0  0  0  0  0  0  0
   28.7720   11.6370   11.1960 C   0  0  0  0  0  0  0  0  0  0  0  0
   31.1210    8.4510   10.8110 Cl  0  0  0  0  0  0  0  0  0  0  0  0
   22.5680   14.0020   14.0710 Cl  0  0  0  0  0  0  0  0  0  0  0  0
   24.3570   13.0940   17.6830 N   0  0  0  0  0  0  0  0  0  0  0  0
   25.1510   14.0740   17.1850 N   0  0  0  0  0  0  0  0  0  0  0  0
   26.3240   12.6980   18.5260 N   0  0  0  0  0  0  0  0  0  0  0  0
   21.7830    8.7270   17.7270 C   0  0  0  0  0  0  0  0  0  0  0  0
  2  1  1  0
  7  5  1  0
  8  4  1  0
  9  3  1  0
 10  4  1  0
  9 14  1  6
 14  1  1  0
 15  3  1  0
 15  2  1  0
  2 16  1  6
 16 11  1  0
 17 10  1  0
 17 11  1  0
 18  9  1  0
 18  6  1  1
 19  5  1  0
 19 18  1  0
 20  7  1  0
 20 18  1  0
 21  8  1  0
 21 11  1  0
 22  4  1  0
 23  3  1  0
 24 13  1  0
 24  6  1  0
 25 24  1  0
 25 12  1  0
 26 13  1  0
 26 12  1  0
  7 27  1  6
M  END
$$$$
