
     RDKit          3D

  9  9  0  0  0  0  0  0  0  0999 V2000
   10.3650   27.7310   45.5310 C   0  0  0  0  0  0  0  0  0  0  0  0
    9.8050   26.7900   46.4690 O   0  0  0  0  0  0  0  0  0  0  0  0
    9.3820   27.2650   47.6640 C   0  0  0  0  0  0  0  0  0  0  0  0
    9.2890   28.6330   48.0180 C   0  0  0  0  0  0  0  0  0  0  0  0
    8.8090   29.0100   49.2690 C   0  0  0  0  0  0  0  0  0  0  0  0
    8.4660   28.0390   50.1950 C   0  0  0  0  0  0  0  0  0  0  0  0
    8.5690   26.6800   49.8750 C   0  0  0  0  0  0  0  0  0  0  0  0
    9.0210   26.2910   48.6530 C   0  0  0  0  0  0  0  0  0  0  0  0
    9.1440   24.9670   48.2710 O   0  0  0  0  0  0  0  0  0  0  0  0
  2  1  1  0
  3  2  1  0
  4  3  1  0
  5  4  1  0
  6  5  1  0
  7  6  1  0
  8  7  1  0
  8  3  1  0
  9  8  1  0
M  END
$$$$
