
     RDKit          3D

 11 11  0  0  0  0  0  0  0  0999 V2000
   43.2870   77.8220   38.6060 O   0  0  0  0  0  0  0  0  0  0  0  0
   43.3020   79.2220   38.4430 C   0  0  0  0  0  0  0  0  0  0  0  0
   43.8510   79.7880   37.3300 C   0  0  0  0  0  0  0  0  0  0  0  0
   44.3790   78.9160   36.4020 O   0  0  0  0  0  0  0  0  0  0  0  0
   45.1180   79.4420   35.3390 C   0  0  0  0  0  0  0  0  0  0  0  0
   43.8740   81.1650   37.1710 C   0  0  0  0  0  0  0  0  0  0  0  0
   43.3540   81.9690   38.1670 C   0  0  0  0  0  0  0  0  0  0  0  0
   42.7940   81.4040   39.2990 C   0  0  0  0  0  0  0  0  0  0  0  0
   42.7720   80.0180   39.4190 C   0  0  0  0  0  0  0  0  0  0  0  0
   42.2500   79.3720   40.5290 O   0  0  0  0  0  0  0  0  0  0  0  0
   41.4330   80.1140   41.3900 C   0  0  0  0  0  0  0  0  0  0  0  0
  2  1  1  0
  3  2  1  0
  4  3  1  0
  5  4  1  0
  6  3  1  0
  7  6  1  0
  8  7  1  0
  9  8  1  0
  9  2  1  0
 10  9  1  0
 11 10  1  0
M  END
$$$$
