
     RDKit          3D

 31 30  0  0  0  0  0  0  0  0999 V2000
   11.2900   -4.7290   16.3480 C   0  0  2  0  0  0  0  0  0  0  0  0
   11.7480   -5.5950   17.4350 C   0  0  2  0  0  0  0  0  0  0  0  0
   11.3970   -5.0160   18.8250 C   0  0  2  0  0  0  0  0  0  0  0  0
    9.9610   -4.6280   19.0060 C   0  0  2  0  0  0  0  0  0  0  0  0
   12.1490   -3.6820   19.0080 C   0  0  2  0  0  0  0  0  0  0  0  0
   12.9420   -3.7280   20.3030 C   0  0  1  0  0  0  0  0  0  0  0  0
   13.9560   -4.7690   20.0190 C   0  0  2  0  0  0  0  0  0  0  0  0
   13.4710   -2.2750   20.7340 C   0  0  1  0  0  0  0  0  0  0  0  0
   14.4470   -1.7950   19.7380 C   0  0  1  0  0  0  0  0  0  0  0  0
   14.9030   -0.4420   20.3530 C   0  0  0  0  0  0  0  0  0  0  0  0
   14.9150   -0.3380   21.6050 O   0  0  0  0  0  0  0  0  0  0  0  0
   15.2010    0.4730   19.5530 O   0  0  0  0  0  0  0  0  0  0  0  0
   10.9920   -5.3400   15.4960 H   0  0  0  0  0  0  0  0  0  0  0  0
   12.0990   -4.0610   16.0490 H   0  0  0  0  0  0  0  0  0  0  0  0
   10.4390   -4.1380   16.6870 H   0  0  0  0  0  0  0  0  0  0  0  0
   12.8300   -5.7070   17.3640 H   0  0  0  0  0  0  0  0  0  0  0  0
   11.2740   -6.5710   17.3300 H   0  0  0  0  0  0  0  0  0  0  0  0
   11.6540   -5.8110   19.5250 H   0  0  0  0  0  0  0  0  0  0  0  0
    9.7130   -3.8190   18.3190 H   0  0  0  0  0  0  0  0  0  0  0  0
    9.8010   -4.2960   20.0310 H   0  0  0  0  0  0  0  0  0  0  0  0
    9.3230   -5.4870   18.7990 H   0  0  0  0  0  0  0  0  0  0  0  0
   11.4330   -2.8620   19.0480 H   0  0  0  0  0  0  0  0  0  0  0  0
   12.8300   -3.5300   18.1700 H   0  0  0  0  0  0  0  0  0  0  0  0
   12.3760   -3.9940   21.1950 H   0  0  0  0  0  0  0  0  0  0  0  0
   14.4290   -4.5640   19.0590 H   0  0  0  0  0  0  0  0  0  0  0  0
   13.4740   -5.7460   19.9850 H   0  0  0  0  0  0  0  0  0  0  0  0
   14.7120   -4.7640   20.8040 H   0  0  0  0  0  0  0  0  0  0  0  0
   12.6310   -1.5820   20.7840 H   0  0  0  0  0  0  0  0  0  0  0  0
   13.9490   -2.3380   21.7110 H   0  0  0  0  0  0  0  0  0  0  0  0
   15.2830   -2.4870   19.6390 H   0  0  0  0  0  0  0  0  0  0  0  0
   13.9780   -1.6490   18.7640 H   0  0  0  0  0  0  0  0  0  0  0  0
  2  1  1  0
  3  2  1  0
  4  3  1  0
  5  3  1  0
  6  5  1  0
  7  6  1  0
  8  6  1  0
  9  8  1  0
 10  9  1  0
 11 10  1  0
 12 10  1  0
  1 13  1  6
 14  1  1  0
 15  1  1  0
  2 16  1  1
 17  2  1  0
  3 18  1  1
  4 19  1  6
 20  4  1  0
 21  4  1  0
  5 22  1  1
 23  5  1  0
  6 24  1  1
  7 25  1  6
 26  7  1  0
 27  7  1  0
  8 28  1  1
 29  8  1  0
  9 30  1  6
 31  9  1  0
M  END
$$$$
