
     RDKit          3D

 21 24  0  0  0  0  0  0  0  0999 V2000
  -28.5530   -9.5490   18.6370 C   0  0  0  0  0  0  0  0  0  0  0  0
  -29.7880   -8.8060   18.1590 C   0  0  0  0  0  0  0  0  0  0  0  0
  -29.4600   -7.3360   17.8100 C   0  0  0  0  0  0  0  0  0  0  0  0
  -29.7430   -6.8900   16.7480 O   0  0  0  0  0  0  0  0  0  0  0  0
  -28.7170   -6.5160   18.8960 C   0  0  0  0  0  0  0  0  0  0  0  0
  -28.1470   -7.3630   20.0290 C   0  0  2  0  0  0  0  0  0  0  0  0
  -27.4000   -6.7390   21.3290 C   0  0  0  0  0  0  0  0  0  0  0  0
  -27.9170   -7.4900   22.6310 C   0  0  0  0  0  0  0  0  0  0  0  0
  -27.6140   -8.9740   22.4500 C   0  0  2  0  0  0  0  0  0  0  0  0
  -28.3110   -9.6690   21.1290 C   0  0  1  0  0  0  0  0  0  0  0  0
  -27.8840   -8.8930   19.8480 C   0  0  1  0  0  0  0  0  0  0  0  0
  -28.0720  -11.1860   21.0490 C   0  0  0  0  0  0  0  0  0  0  0  0
  -28.3270  -12.0120   22.4910 C   0  0  0  0  0  0  0  0  0  0  0  0
  -27.5320  -11.3330   23.6000 C   0  0  1  0  0  0  0  0  0  0  0  0
  -27.8640   -9.7810   23.7400 C   0  0  1  0  0  0  0  0  0  0  0  0
  -27.1730   -9.2990   25.1060 C   0  0  0  0  0  0  0  0  0  0  0  0
  -27.2560  -10.5600   26.0950 C   0  0  0  0  0  0  0  0  0  0  0  0
  -27.5870  -11.9260   25.1430 C   0  0  2  0  0  0  0  0  0  0  0  0
  -26.7440  -12.8220   25.2430 O   0  0  0  0  0  0  0  0  0  0  0  0
  -26.0390  -11.4920   23.1660 C   0  0  0  0  0  0  0  0  0  0  0  0
  -26.3710   -9.0850   19.5830 C   0  0  0  0  0  0  0  0  0  0  0  0
  2  1  1  0
  3  2  1  0
  4  3  1  0
  5  3  1  0
  6  5  1  6
  7  6  1  0
  8  7  1  0
  9  8  1  1
 10  9  1  0
 11 10  1  0
 11  6  1  0
 11  1  1  0
 10 12  1  6
 13 12  1  0
 14 13  1  0
 15 14  1  0
 15  9  1  0
 15 16  1  1
 17 16  1  0
 18 14  1  0
 18 17  1  0
 18 19  1  6
 14 20  1  6
 11 21  1  6
M  END
$$$$
