
     RDKit          3D

 22 21  0  0  0  0  0  0  0  0999 V2000
   10.5820  -26.7750  -28.2760 C   0  0  0  0  0  0  0  0  0  0  0  0
   10.0070  -26.4110  -29.3390 O   0  0  0  0  0  0  0  0  0  0  0  0
   11.8050  -27.0390  -28.1440 O   0  0  0  0  0  0  0  0  0  0  0  0
    9.7400  -26.8850  -27.0340 C   0  0  0  0  0  0  0  0  0  0  0  0
    9.8680  -25.5740  -26.2730 C   0  0  0  0  0  0  0  0  0  0  0  0
    8.4730  -25.0300  -26.0340 C   0  0  0  0  0  0  0  0  0  0  0  0
    8.1600  -23.9340  -27.0220 C   0  0  0  0  0  0  0  0  0  0  0  0
    8.7670  -22.6400  -26.5140 C   0  0  0  0  0  0  0  0  0  0  0  0
    7.9470  -21.5370  -27.1570 C   0  0  0  0  0  0  0  0  0  0  0  0
    8.4950  -20.1470  -26.8220 C   0  0  0  0  0  0  0  0  0  0  0  0
    7.9310  -19.1600  -27.8330 C   0  0  0  0  0  0  0  0  0  0  0  0
    8.2040  -17.7530  -27.3400 C   0  0  0  0  0  0  0  0  0  0  0  0
    7.9950  -16.7490  -28.4530 C   0  0  0  0  0  0  0  0  0  0  0  0
    7.8700  -15.3310  -27.8950 C   0  0  0  0  0  0  0  0  0  0  0  0
    7.8440  -14.2710  -28.9830 C   0  0  0  0  0  0  0  0  0  0  0  0
    7.7820  -12.8640  -28.4030 C   0  0  0  0  0  0  0  0  0  0  0  0
    6.7040  -11.9830  -29.0110 C   0  0  0  0  0  0  0  0  0  0  0  0
    6.6080  -10.6530  -28.2830 C   0  0  0  0  0  0  0  0  0  0  0  0
    5.6200  -10.3620  -27.4220 C   0  0  0  0  0  0  0  0  0  0  0  0
    5.6200   -8.9970  -26.7720 C   0  0  0  0  0  0  0  0  0  0  0  0
    4.9370   -8.9110  -25.4670 C   0  0  0  0  0  0  0  0  0  0  0  0
    4.3780   -8.7330  -24.3140 C   0  0  0  0  0  0  0  0  0  0  0  0
  2  1  1  0
  3  1  1  0
  4  1  1  0
  5  4  1  0
  6  5  1  0
  7  6  1  0
  8  7  1  0
  9  8  1  0
 10  9  1  0
 11 10  1  0
 12 11  1  0
 13 12  1  0
 14 13  1  0
 15 14  1  0
 16 15  1  0
 17 16  1  0
 18 17  1  0
 19 18  1  0
 20 19  1  0
 21 20  1  0
 22 21  1  0
M  END
$$$$
