
     RDKit          3D

 35 39  0  0  0  0  0  0  0  0999 V2000
  137.1800   10.2420   10.1520 O   0  0  0  0  0  0  0  0  0  0  0  0
  137.8900    9.2710   10.0930 C   0  0  0  0  0  0  0  0  0  0  0  0
  137.4420    8.0670    9.8100 N   0  0  0  0  0  0  0  0  0  0  0  0
  136.0610    7.8570    9.4960 C   0  0  1  0  0  0  0  0  0  0  0  0
  135.8820    8.0950    8.0260 C   0  0  0  0  0  0  0  0  0  0  0  0
  134.5960    7.6330    7.5490 N   0  0  0  0  0  0  0  0  0  0  0  0
  133.3980    8.1290    7.8070 C   0  0  0  0  0  0  0  0  0  0  0  0
  132.4840    7.3890    7.1140 C   0  0  0  0  0  0  0  0  0  0  0  0
  133.1710    6.4770    6.4400 N   0  0  0  0  0  0  0  0  0  0  0  0
  134.4560    6.6300    6.7130 C   0  0  0  0  0  0  0  0  0  0  0  0
  135.7780    6.4720    9.8390 C   0  0  0  0  0  0  0  0  0  0  0  0
  136.0260    5.4220    9.0070 C   0  0  0  0  0  0  0  0  0  0  0  0
  135.7370    4.1510    9.4510 C   0  0  0  0  0  0  0  0  0  0  0  0
  135.2070    3.9370   10.6930 C   0  0  0  0  0  0  0  0  0  0  0  0
  134.8220    2.3430   11.2830 Cl  0  0  0  0  0  0  0  0  0  0  0  0
  134.9550    4.9460   11.5470 C   0  0  0  0  0  0  0  0  0  0  0  0
  135.2280    6.2020   11.1540 C   0  0  0  0  0  0  0  0  0  0  0  0
  134.8660    7.4590   12.3020 Cl  0  0  0  0  0  0  0  0  0  0  0  0
  139.3360    9.4370   10.3380 C   0  0  0  0  0  0  0  0  0  0  0  0
  139.8760   10.6840   10.5720 C   0  0  0  0  0  0  0  0  0  0  0  0
  141.2310   10.8160   10.7850 C   0  0  0  0  0  0  0  0  0  0  0  0
  142.0100    9.6860   10.7810 C   0  0  1  0  0  0  0  0  0  0  0  0
  141.4740    8.4540   10.5270 C   0  0  0  0  0  0  0  0  0  0  0  0
  140.1290    8.3190   10.3090 C   0  0  0  0  0  0  0  0  0  0  0  0
  143.4590    9.7620   10.9830 C   0  0  0  0  0  0  0  0  0  0  0  0
  144.2140    8.9470   11.7210 N   0  0  0  0  0  0  0  0  0  0  0  0
  145.5290    9.3860   11.6130 N   0  0  0  0  0  0  0  0  0  0  0  0
  145.5140   10.4310   10.7930 C   0  0  0  0  0  0  0  0  0  0  0  0
  144.2470   10.6870   10.4160 O   0  0  0  0  0  0  0  0  0  0  0  0
  146.6650   11.2420   10.3890 C   0  0  0  0  0  0  0  0  0  0  0  0
  147.8560   11.1270   11.0600 C   0  0  0  0  0  0  0  0  0  0  0  0
  148.9050   11.9110   10.6540 C   0  0  0  0  0  0  0  0  0  0  0  0
  148.7370   12.8060    9.6150 C   0  0  0  0  0  0  0  0  0  0  0  0
  147.5340   12.9300    8.9660 C   0  0  0  0  0  0  0  0  0  0  0  0
  146.4890   12.1400    9.3640 C   0  0  0  0  0  0  0  0  0  0  0  0
  2  1  1  0
  3  2  1  0
  4  3  1  0
  4  5  1  6
  6  5  1  0
  7  6  1  0
  8  7  1  0
  9  8  1  0
 10  9  1  0
 10  6  1  0
 11  4  1  0
 12 11  1  0
 13 12  1  0
 14 13  1  0
 15 14  1  0
 16 14  1  0
 17 16  1  0
 17 11  1  0
 18 17  1  0
 19  2  1  0
 20 19  1  0
 21 20  1  0
 22 21  1  0
 23 22  1  0
 24 23  1  0
 24 19  1  0
 22 25  1  6
 26 25  1  0
 27 26  1  0
 28 27  1  0
 29 28  1  0
 29 25  1  0
 30 28  1  0
 31 30  1  0
 32 31  1  0
 33 32  1  0
 34 33  1  0
 35 30  1  0
 35 34  1  0
M  END
$$$$
