
     RDKit          3D

 39 40  0  0  0  0  0  0  0  0999 V2000
   16.5830   38.0970   35.2440 O   0  0  0  0  0  0  0  0  0  0  0  0
   16.7590   39.0690   36.0160 C   0  0  0  0  0  0  0  0  0  0  0  0
   17.5950   39.9780   35.8180 O   0  0  0  0  0  0  0  0  0  0  0  0
   15.9980   39.1900   37.1780 C   0  0  0  0  0  0  0  0  0  0  0  0
   15.0160   38.3030   37.5970 C   0  0  0  0  0  0  0  0  0  0  0  0
   14.6880   37.0810   36.7520 C   0  0  0  0  0  0  0  0  0  0  0  0
   14.3510   38.5870   38.7940 C   0  0  0  0  0  0  0  0  0  0  0  0
   13.3690   37.7900   39.3810 C   0  0  0  0  0  0  0  0  0  0  0  0
   12.7520   38.2520   40.5490 C   0  0  2  0  0  0  0  0  0  0  0  0
   13.5070   38.1560   41.7720 O   0  0  0  0  0  0  0  0  0  0  0  0
   11.3780   37.5980   40.6520 C   0  0  1  0  0  0  0  0  0  0  0  0
   10.6760   37.6240   39.3100 C   0  0  0  0  0  0  0  0  0  0  0  0
    9.3470   36.8740   39.3870 C   0  0  0  0  0  0  0  0  0  0  0  0
    8.4500   37.3030   38.2370 C   0  0  0  0  0  0  0  0  0  0  0  0
    7.3220   36.2950   38.0110 C   0  0  0  0  0  0  0  0  0  0  0  0
   11.5330   36.1650   41.1250 C   0  0  0  0  0  0  0  0  0  0  0  0
   12.2530   36.1720   42.4690 C   0  0  0  0  0  0  0  0  0  0  0  0
   13.6150   36.8770   42.4020 C   0  0  1  0  0  0  0  0  0  0  0  0
   14.5340   36.0120   41.7090 O   0  0  0  0  0  0  0  0  0  0  0  0
   14.1330   37.0970   43.8230 C   0  0  0  0  0  0  0  0  0  0  0  0
   15.5290   37.7220   43.7790 C   0  0  0  0  0  0  0  0  0  0  0  0
   16.5000   36.8440   42.9800 C   0  0  2  0  0  0  0  0  0  0  0  0
   17.8390   37.5640   42.7980 C   0  0  0  0  0  0  0  0  0  0  0  0
   15.9080   36.4410   41.6190 C   0  0  1  0  0  0  0  0  0  0  0  0
   16.5970   35.2250   40.9630 C   0  0  0  0  0  0  0  0  0  0  0  0
   16.0540   34.9600   39.6930 C   0  0  0  0  0  0  0  0  0  0  0  0
   15.0490   34.0610   39.3200 C   0  0  0  0  0  0  0  0  0  0  0  0
   14.3490   33.1530   40.3420 C   0  0  0  0  0  0  0  0  0  0  0  0
   14.6800   33.9670   37.9740 C   0  0  0  0  0  0  0  0  0  0  0  0
   13.6660   33.1120   37.5440 C   0  0  0  0  0  0  0  0  0  0  0  0
   13.2510   32.9900   36.0640 C   0  0  2  0  0  0  0  0  0  0  0  0
   14.0300   33.8480   35.2260 O   0  0  0  0  0  0  0  0  0  0  0  0
   11.7580   33.2830   35.8500 C   0  0  1  0  0  0  0  0  0  0  0  0
   11.3410   34.6620   36.3880 C   0  0  0  0  0  0  0  0  0  0  0  0
   11.5300   33.1830   34.3400 C   0  0  0  0  0  0  0  0  0  0  0  0
   10.6020   33.9210   33.6200 C   0  0  0  0  0  0  0  0  0  0  0  0
   10.5160   33.7640   32.2330 C   0  0  0  0  0  0  0  0  0  0  0  0
   11.3190   32.9870   31.6600 O   0  0  0  0  0  0  0  0  0  0  0  0
    9.6250   34.3990   31.6430 O   0  0  0  0  0  0  0  0  0  0  0  0
  2  1  1  0
  3  2  1  0
  4  2  1  0
  5  4  1  0
  6  5  1  0
  7  5  1  0
  8  7  1  0
  9  8  1  6
 10  9  1  0
 11  9  1  0
 11 12  1  6
 13 12  1  0
 14 13  1  0
 15 14  1  0
 16 11  1  0
 17 16  1  0
 18 17  1  1
 18 10  1  0
 19 18  1  0
 20 18  1  0
 21 20  1  0
 22 21  1  0
 22 23  1  6
 24 19  1  0
 24 22  1  0
 24 25  1  1
 26 25  1  0
 27 26  1  0
 28 27  1  0
 29 27  1  0
 30 29  1  0
 31 30  1  0
 31 32  1  6
 33 31  1  0
 33 34  1  6
 35 33  1  0
 36 35  1  0
 37 36  1  0
 38 37  1  0
 39 37  1  0
M  END
$$$$
