
     RDKit          3D

 31 34  0  0  0  0  0  0  0  0999 V2000
  -19.6860   25.9630  -19.7030 C   0  0  0  0  0  0  0  0  0  0  0  0
  -19.1990   26.2230  -18.2810 C   0  0  1  0  0  0  0  0  0  0  0  0
  -17.6880   26.0690  -18.3080 C   0  0  0  0  0  0  0  0  0  0  0  0
  -17.0070   25.0720  -17.7490 N   0  0  0  0  0  0  0  0  0  0  0  0
  -15.5550   25.2970  -18.0080 C   0  0  2  0  0  0  0  0  0  0  0  0
  -15.2630   26.4120  -18.7520 C   0  0  0  0  0  0  0  0  0  0  0  0
  -16.7030   27.2520  -19.1360 S   0  0  0  0  0  0  0  0  0  0  0  0
  -14.6830   24.2900  -17.4980 C   0  0  0  0  0  0  0  0  0  0  0  0
  -13.9430   23.6310  -18.4500 C   0  0  0  0  0  0  0  0  0  0  0  0
  -13.0990   22.6310  -18.0700 C   0  0  0  0  0  0  0  0  0  0  0  0
  -13.0270   22.3600  -16.7290 C   0  0  0  0  0  0  0  0  0  0  0  0
  -13.7510   23.0070  -15.7550 C   0  0  0  0  0  0  0  0  0  0  0  0
  -14.6110   23.9930  -16.1540 C   0  0  0  0  0  0  0  0  0  0  0  0
  -12.1600   21.3200  -16.3790 C   0  0  0  0  0  0  0  0  0  0  0  0
  -11.4010   20.4490  -16.2280 N   0  0  0  0  0  0  0  0  0  0  0  0
  -19.7100   27.5810  -17.8080 C   0  0  2  0  0  0  0  0  0  0  0  0
  -19.0430   28.0480  -16.5010 C   0  0  0  0  0  0  0  0  0  0  0  0
  -19.3940   29.3470  -15.9110 N   0  0  0  0  0  0  0  0  0  0  0  0
  -19.7290   30.5220  -16.5330 C   0  0  0  0  0  0  0  0  0  0  0  0
  -19.9340   31.4980  -15.6740 N   0  0  0  0  0  0  0  0  0  0  0  0
  -19.6910   30.8550  -14.5010 C   0  0  0  0  0  0  0  0  0  0  0  0
  -19.3440   29.5600  -14.5850 N   0  0  0  0  0  0  0  0  0  0  0  0
  -21.2120   27.7070  -17.6580 C   0  0  1  0  0  0  0  0  0  0  0  0
  -21.9400   27.3080  -16.5430 C   0  0  0  0  0  0  0  0  0  0  0  0
  -23.3160   27.4860  -16.4260 C   0  0  0  0  0  0  0  0  0  0  0  0
  -24.0260   28.0940  -17.4390 C   0  0  0  0  0  0  0  0  0  0  0  0
  -23.3150   28.5060  -18.5530 C   0  0  0  0  0  0  0  0  0  0  0  0
  -21.9600   28.3140  -18.6560 C   0  0  0  0  0  0  0  0  0  0  0  0
  -23.9020   29.1070  -19.5970 F   0  0  0  0  0  0  0  0  0  0  0  0
  -21.3040   26.7090  -15.5290 F   0  0  0  0  0  0  0  0  0  0  0  0
  -19.2460   28.4240  -18.8720 O   0  0  0  0  0  0  0  0  0  0  0  0
  2  1  1  6
  3  2  1  0
  4  3  1  0
  5  4  1  0
  6  5  1  0
  7  3  1  0
  7  6  1  0
  5  8  1  6
  9  8  1  0
 10  9  1  0
 11 10  1  0
 12 11  1  0
 13  8  1  0
 13 12  1  0
 14 11  1  0
 15 14  1  0
 16  2  1  0
 17 16  1  0
 18 17  1  0
 19 18  1  0
 20 19  1  0
 21 20  1  0
 22 21  1  0
 22 18  1  0
 23 16  1  0
 24 23  1  0
 25 24  1  0
 26 25  1  0
 27 26  1  0
 28 27  1  0
 23 28  1  1
 29 27  1  0
 30 24  1  0
 16 31  1  6
M  END
$$$$
