
     RDKit          3D

 32 33  0  0  0  0  0  0  0  0999 V2000
   23.8540   -0.3780   26.9170 C   0  0  0  0  0  0  0  0  0  0  0  0
   24.7560   -1.3000   27.7520 C   0  0  0  0  0  0  0  0  0  0  0  0
   23.9190   -2.3410   28.5950 C   0  0  1  0  0  0  0  0  0  0  0  0
   23.0560   -3.1340   27.7210 O   0  0  0  0  0  0  0  0  0  0  0  0
   21.6970   -3.2080   27.6870 C   0  0  0  0  0  0  0  0  0  0  0  0
   20.9480   -2.5320   28.3610 O   0  0  0  0  0  0  0  0  0  0  0  0
   21.2780   -4.2460   26.7470 C   0  0  2  0  0  0  0  0  0  0  0  0
   20.9400   -3.5850   25.3810 C   0  0  0  0  0  0  0  0  0  0  0  0
   20.0400   -5.1210   27.1610 C   0  0  1  0  0  0  0  0  0  0  0  0
   20.0550   -6.1320   26.1000 O   0  0  0  0  0  0  0  0  0  0  0  0
   18.8460   -6.7290   25.5950 C   0  0  1  0  0  0  0  0  0  0  0  0
   17.6290   -6.5510   26.3500 O   0  0  0  0  0  0  0  0  0  0  0  0
   16.5650   -7.4390   25.8300 C   0  0  1  0  0  0  0  0  0  0  0  0
   15.3080   -7.2210   26.6590 C   0  0  0  0  0  0  0  0  0  0  0  0
   16.2600   -7.1290   24.3250 C   0  0  0  0  0  0  0  0  0  0  0  0
   17.5960   -7.2770   23.5170 C   0  0  1  0  0  0  0  0  0  0  0  0
   17.5650   -7.1370   22.0090 N   0  0  0  0  0  0  0  0  0  0  0  0
   17.8700   -8.4720   21.4750 C   0  0  0  0  0  0  0  0  0  0  0  0
   16.2500   -6.7520   21.4690 C   0  0  0  0  0  0  0  0  0  0  0  0
   18.6540   -6.2880   24.1370 C   0  0  2  0  0  0  0  0  0  0  0  0
   19.9010   -6.3720   23.4220 O   0  0  0  0  0  0  0  0  0  0  0  0
   20.2250   -5.7960   28.6120 C   0  0  1  0  0  0  0  0  0  0  0  0
   18.9200   -6.2640   29.2250 C   0  0  0  0  0  0  0  0  0  0  0  0
   21.2310   -6.9650   28.5400 C   0  0  0  0  0  0  0  0  0  0  0  0
   22.2230   -7.2170   29.7480 C   0  0  2  0  0  0  0  0  0  0  0  0
   21.8720   -8.4930   30.4850 C   0  0  0  0  0  0  0  0  0  0  0  0
   22.3030   -5.9890   30.7790 C   0  0  0  0  0  0  0  0  0  0  0  0
   21.7350   -6.0540   31.8570 O   0  0  0  0  0  0  0  0  0  0  0  0
   23.0150   -4.7490   30.4770 C   0  0  0  0  0  0  0  0  0  0  0  0
   24.1460   -4.6970   29.8050 C   0  0  0  0  0  0  0  0  0  0  0  0
   24.8480   -3.3640   29.4570 C   0  0  1  0  0  0  0  0  0  0  0  0
   26.1040   -3.8080   28.7050 C   0  0  0  0  0  0  0  0  0  0  0  0
  2  1  1  0
  3  2  1  6
  4  3  1  0
  5  4  1  0
  6  5  1  0
  7  5  1  0
  7  8  1  6
  9  7  1  0
  9 10  1  6
 11 10  1  1
 12 11  1  0
 13 12  1  0
 13 14  1  1
 15 13  1  0
 16 15  1  0
 16 17  1  6
 18 17  1  0
 19 17  1  0
 20 16  1  0
 20 11  1  0
 20 21  1  6
 22  9  1  0
 22 23  1  6
 24 22  1  0
 25 24  1  0
 25 26  1  1
 27 25  1  0
 28 27  1  0
 29 27  1  0
 30 29  1  0
 31 30  1  0
 31  3  1  0
 31 32  1  6
M  END
$$$$
