
     RDKit          3D

 75 79  0  0  0  0  0  0  0  0999 V2000
   19.0710    0.3070   13.5110 C   0  0  1  0  0  0  0  0  0  0  0  0
   19.8570   -3.4380   13.2950 C   0  0  2  0  0  0  0  0  0  0  0  0
   19.4290   -4.5610   14.2170 C   0  0  1  0  0  0  0  0  0  0  0  0
   18.3960   -3.3330   16.0580 C   0  0  0  0  0  0  0  0  0  0  0  0
   17.1250   -3.0390   16.7600 C   0  0  0  0  0  0  0  0  0  0  0  0
   16.8720   -2.2870   17.8210 C   0  0  0  0  0  0  0  0  0  0  0  0
   17.8860   -1.5700   18.6540 C   0  0  2  0  0  0  0  0  0  0  0  0
   17.3590   -0.2220   19.1500 C   0  0  2  0  0  0  0  0  0  0  0  0
   16.1270   -0.4000   20.0530 C   0  0  2  0  0  0  0  0  0  0  0  0
   15.6790    0.9640   20.6170 C   0  0  1  0  0  0  0  0  0  0  0  0
   20.2480    0.2420   12.6330 C   0  0  0  0  0  0  0  0  0  0  0  0
   15.4450    1.9560   19.4940 C   0  0  0  0  0  0  0  0  0  0  0  0
   16.6140    2.0920   18.5560 C   0  0  2  0  0  0  0  0  0  0  0  0
   17.0010    0.7270   18.0030 C   0  0  1  0  0  0  0  0  0  0  0  0
   18.1410    1.0110   17.0830 C   0  0  0  0  0  0  0  0  0  0  0  0
   18.1930    0.5920   15.8410 C   0  0  0  0  0  0  0  0  0  0  0  0
   16.3400   -1.2490   21.2870 C   0  0  1  0  0  0  0  0  0  0  0  0
   15.1320   -0.9010   22.1680 C   0  0  2  0  0  0  0  0  0  0  0  0
   14.6440    0.4560   21.6270 C   0  0  1  0  0  0  0  0  0  0  0  0
   15.5000   -0.6250   23.6310 C   0  0  2  0  0  0  0  0  0  0  0  0
   14.3630    0.3160   24.0230 C   0  0  2  0  0  0  0  0  0  0  0  0
   14.3570    1.3190   22.8660 C   0  0  2  0  0  0  0  0  0  0  0  0
   14.7070    1.1300   25.2650 C   0  0  1  0  0  0  0  0  0  0  0  0
   14.8530    0.3390   26.5110 C   0  0  1  0  0  0  0  0  0  0  0  0
   13.1030    2.1650   22.7180 C   0  0  1  0  0  0  0  0  0  0  0  0
   18.7890   -1.5200   12.0300 C   0  0  2  0  0  0  0  0  0  0  0  0
   18.1520   -0.7640   13.1270 C   0  0  0  0  0  0  0  0  0  0  0  0
   18.9070   -3.0330   12.1770 C   0  0  1  0  0  0  0  0  0  0  0  0
   19.1530    0.8440   14.7930 C   0  0  2  0  0  0  0  0  0  0  0  0
   18.2910   -4.1950   15.0430 N   0  0  0  0  0  0  0  0  0  0  0  0
   20.0150   -0.8100   11.8430 N   0  0  0  0  0  0  0  0  0  0  0  0
   19.4730   -2.8000   16.3540 O   0  0  0  0  0  0  0  0  0  0  0  0
   17.0450   -1.0230   13.5600 O   0  0  0  0  0  0  0  0  0  0  0  0
   14.3970    2.5530   19.3470 O   0  0  0  0  0  0  0  0  0  0  0  0
   19.3240   -3.6350   10.9490 O   0  0  0  0  0  0  0  0  0  0  0  0
   20.1100    1.6850   15.0770 O   0  0  0  0  0  0  0  0  0  0  0  0
   21.2250    0.9730   12.5790 O   0  0  0  0  0  0  0  0  0  0  0  0
   20.8250   -3.6890   12.8650 H   0  0  0  0  0  0  0  0  0  0  0  0
   20.0910   -2.5610   13.8970 H   0  0  0  0  0  0  0  0  0  0  0  0
   19.2020   -5.4630   13.6520 H   0  0  0  0  0  0  0  0  0  0  0  0
   20.2560   -4.8820   14.8490 H   0  0  0  0  0  0  0  0  0  0  0  0
   16.2430   -3.5180   16.3380 H   0  0  0  0  0  0  0  0  0  0  0  0
   15.8410   -2.1560   18.1470 H   0  0  0  0  0  0  0  0  0  0  0  0
   18.8160   -1.4070   18.1130 H   0  0  0  0  0  0  0  0  0  0  0  0
   18.2010   -2.1620   19.5120 H   0  0  0  0  0  0  0  0  0  0  0  0
   18.1740    0.1930   19.7420 H   0  0  0  0  0  0  0  0  0  0  0  0
   15.3250   -0.8740   19.4880 H   0  0  0  0  0  0  0  0  0  0  0  0
   16.4450    1.4510   21.2200 H   0  0  0  0  0  0  0  0  0  0  0  0
   17.4600    2.5440   19.0710 H   0  0  0  0  0  0  0  0  0  0  0  0
   16.3660    2.7720   17.7410 H   0  0  0  0  0  0  0  0  0  0  0  0
   16.1450    0.3480   17.4470 H   0  0  0  0  0  0  0  0  0  0  0  0
   18.9550    1.6000   17.5030 H   0  0  0  0  0  0  0  0  0  0  0  0
   17.4090   -0.0640   15.4640 H   0  0  0  0  0  0  0  0  0  0  0  0
   16.3820   -2.3150   21.0660 H   0  0  0  0  0  0  0  0  0  0  0  0
   17.2800   -1.0340   21.7920 H   0  0  0  0  0  0  0  0  0  0  0  0
   14.3560   -1.6620   22.1040 H   0  0  0  0  0  0  0  0  0  0  0  0
   13.7260    0.2150   21.0920 H   0  0  0  0  0  0  0  0  0  0  0  0
   16.4850   -0.1700   23.7280 H   0  0  0  0  0  0  0  0  0  0  0  0
   15.5280   -1.5360   24.2270 H   0  0  0  0  0  0  0  0  0  0  0  0
   13.4760   -0.3000   24.1670 H   0  0  0  0  0  0  0  0  0  0  0  0
   15.1690    2.0170   23.0610 H   0  0  0  0  0  0  0  0  0  0  0  0
   15.6250    1.6850   25.0740 H   0  0  0  0  0  0  0  0  0  0  0  0
   13.9440    1.8940   25.4030 H   0  0  0  0  0  0  0  0  0  0  0  0
   14.3070    0.7880   27.3390 H   0  0  0  0  0  0  0  0  0  0  0  0
   14.4760   -0.6750   26.3900 H   0  0  0  0  0  0  0  0  0  0  0  0
   15.8950    0.2600   26.8180 H   0  0  0  0  0  0  0  0  0  0  0  0
   13.2570    2.9330   21.9620 H   0  0  0  0  0  0  0  0  0  0  0  0
   12.2630    1.5400   22.4180 H   0  0  0  0  0  0  0  0  0  0  0  0
   12.8620    2.6460   23.6650 H   0  0  0  0  0  0  0  0  0  0  0  0
   18.1550   -1.2780   11.1780 H   0  0  0  0  0  0  0  0  0  0  0  0
   17.9380   -3.4880   12.3740 H   0  0  0  0  0  0  0  0  0  0  0  0
   17.4070   -4.6330   14.8050 H   0  0  0  0  0  0  0  0  0  0  0  0
   20.6820   -1.1000   11.1340 H   0  0  0  0  0  0  0  0  0  0  0  0
   18.5190   -3.8280   10.3990 H   0  0  0  0  0  0  0  0  0  0  0  0
   20.6790    1.8820   14.2870 H   0  0  0  0  0  0  0  0  0  0  0  0
  3  2  1  0
  5  4  1  0
  6  5  1  0
  7  6  1  0
  8  7  1  0
  9  8  1  0
 10  9  1  0
  1 11  1  1
 12 10  1  0
 13 12  1  0
 14 13  1  0
 14  8  1  0
 15 14  1  0
 16 15  1  0
 17  9  1  0
 18 17  1  0
 19 10  1  0
 19 18  1  0
 20 18  1  0
 21 20  1  0
 22 19  1  0
 22 21  1  0
 23 21  1  0
 24 23  1  0
 25 22  1  0
 27 26  1  0
 27  1  1  0
 28 26  1  0
 28  2  1  0
 29 16  1  0
 29  1  1  0
 30  4  1  0
 30  3  1  0
 31 26  1  0
 31 11  1  0
 32  4  1  0
 33 27  1  0
 34 12  1  0
 35 28  1  0
 29 36  1  6
 37 11  1  0
  2 38  1  6
 39  2  1  0
  3 40  1  6
 41  3  1  0
 42  5  1  0
 43  6  1  0
  7 44  1  6
 45  7  1  0
  8 46  1  1
  9 47  1  6
 10 48  1  1
 13 49  1  1
 50 13  1  0
 14 51  1  6
 52 15  1  0
 53 16  1  0
 17 54  1  6
 55 17  1  0
 18 56  1  1
 19 57  1  6
 20 58  1  6
 59 20  1  0
 21 60  1  1
 22 61  1  1
 23 62  1  6
 63 23  1  0
 24 64  1  1
 65 24  1  0
 66 24  1  0
 25 67  1  6
 68 25  1  0
 69 25  1  0
 26 70  1  6
 28 71  1  1
 72 30  1  0
 73 31  1  0
 74 35  1  0
 75 36  1  0
M  END
$$$$
