
     RDKit          3D

 28 28  0  0  0  0  0  0  0  0999 V2000
  -22.9760   -5.3610    2.7340 O   0  0  0  0  0  0  0  0  0  0  0  0
  -23.6190   -5.7840    3.7200 C   0  0  1  0  0  0  0  0  0  0  0  0
  -23.1950   -6.9980    4.5370 C   0  0  2  0  0  0  0  0  0  0  0  0
  -24.2070   -8.1340    4.3950 C   0  0  0  0  0  0  0  0  0  0  0  0
  -22.9840   -6.5940    6.0180 C   0  0  0  0  0  0  0  0  0  0  0  0
  -21.9940   -5.4310    6.2240 C   0  0  2  0  0  0  0  0  0  0  0  0
  -20.6210   -5.9480    5.8080 C   0  0  0  0  0  0  0  0  0  0  0  0
  -21.9350   -4.9230    7.6750 C   0  0  2  0  0  0  0  0  0  0  0  0
  -21.8340   -6.0780    8.4880 O   0  0  0  0  0  0  0  0  0  0  0  0
  -20.7640   -6.1000    9.4450 C   0  0  0  0  0  0  0  0  0  0  0  0
  -19.8170   -5.3490    9.3410 O   0  0  0  0  0  0  0  0  0  0  0  0
  -20.9390   -7.0610   10.5750 C   0  0  0  0  0  0  0  0  0  0  0  0
  -19.7170   -7.0960   11.4660 C   0  0  0  0  0  0  0  0  0  0  0  0
  -20.1940   -7.6140   12.7360 N   0  0  0  0  0  0  0  0  0  0  0  0
  -19.0050   -7.6910   13.5680 C   0  0  0  0  0  0  0  0  0  0  0  0
  -20.6700   -8.9920   12.5680 C   0  0  0  0  0  0  0  0  0  0  0  0
  -23.1330   -4.0970    8.1550 C   0  0  1  0  0  0  0  0  0  0  0  0
  -22.9190   -3.5040    9.5520 C   0  0  0  0  0  0  0  0  0  0  0  0
  -23.3710   -2.9800    7.1800 C   0  0  0  0  0  0  0  0  0  0  0  0
  -22.4850   -2.1400    6.9440 O   0  0  0  0  0  0  0  0  0  0  0  0
  -24.6720   -3.0130    6.5320 O   0  0  0  0  0  0  0  0  0  0  0  0
  -24.9560   -2.0550    5.4960 C   0  0  2  0  0  0  0  0  0  0  0  0
  -25.4300   -0.7250    6.1170 C   0  0  0  0  0  0  0  0  0  0  0  0
  -26.8700   -0.8330    6.2760 C   0  0  0  0  0  0  0  0  0  0  0  0
  -25.8210   -2.7900    4.4610 C   0  0  2  0  0  0  0  0  0  0  0  0
  -27.0820   -3.5130    4.9630 C   0  0  0  0  0  0  0  0  0  0  0  0
  -24.7890   -3.7750    4.0010 C   0  0  0  0  0  0  0  0  0  0  0  0
  -24.8130   -5.0610    4.2170 C   0  0  0  0  0  0  0  0  0  0  0  0
  2  1  1  1
  3  2  1  0
  3  4  1  1
  5  3  1  0
  6  5  1  0
  6  7  1  1
  8  6  1  0
  8  9  1  1
 10  9  1  0
 11 10  1  0
 12 10  1  0
 13 12  1  0
 14 13  1  0
 15 14  1  0
 16 14  1  0
 17  8  1  0
 17 18  1  1
 19 17  1  0
 20 19  1  0
 21 19  1  0
 22 21  1  0
 22 23  1  1
 24 23  1  0
 25 22  1  0
 25 26  1  1
 27 25  1  0
 28  2  1  0
 28 27  1  0
M  END
$$$$
