
     RDKit          3D

 13 13  0  0  0  0  0  0  0  0999 V2000
   44.7530  -40.9510  -28.5880 C   0  0  0  0  0  0  0  0  0  0  0  0
   44.5640  -41.6920  -29.5380 O   0  0  0  0  0  0  0  0  0  0  0  0
   45.6640  -39.7530  -28.7260 C   0  0  0  0  0  0  0  0  0  0  0  0
   46.6720  -39.9860  -29.8290 C   0  0  0  0  0  0  0  0  0  0  0  0
   46.2870  -39.9810  -31.1660 C   0  0  0  0  0  0  0  0  0  0  0  0
   47.2320  -40.1930  -32.1670 C   0  0  0  0  0  0  0  0  0  0  0  0
   48.5610  -40.4230  -31.8310 C   0  0  0  0  0  0  0  0  0  0  0  0
   48.9430  -40.4220  -30.4970 C   0  0  0  0  0  0  0  0  0  0  0  0
   48.0010  -40.2060  -29.4990 C   0  0  0  0  0  0  0  0  0  0  0  0
   49.5960  -40.6580  -32.8890 C   0  0  1  0  0  0  0  0  0  0  0  0
   48.9480  -40.5490  -34.2630 C   0  0  0  0  0  0  0  0  0  0  0  0
   50.6970  -39.6170  -32.7480 C   0  0  0  0  0  0  0  0  0  0  0  0
   50.1830  -42.0470  -32.6860 C   0  0  0  0  0  0  0  0  0  0  0  0
  2  1  1  0
  3  1  1  0
  4  3  1  0
  5  4  1  0
  6  5  1  0
  7  6  1  0
  8  7  1  0
  9  8  1  0
  9  4  1  0
 10  7  1  0
 10 11  1  6
 12 10  1  0
 13 10  1  0
M  END
$$$$
