
     RDKit          3D

  6  6  0  0  0  0  0  0  0  0999 V2000
   46.9230   46.6550   13.3890 C   0  0  0  0  0  0  0  0  0  0  0  0
   47.4190   45.5070   13.9960 C   0  0  0  0  0  0  0  0  0  0  0  0
   48.2450   44.6480   13.2300 C   0  0  0  0  0  0  0  0  0  0  0  0
   48.4950   44.9260   11.9100 C   0  0  0  0  0  0  0  0  0  0  0  0
   48.0260   46.1200   11.3260 C   0  0  0  0  0  0  0  0  0  0  0  0
   47.1980   46.9590   12.0730 C   0  0  0  0  0  0  0  0  0  0  0  0
  2  1  1  0
  3  2  1  0
  4  3  1  0
  5  4  1  0
  6  5  1  0
  6  1  1  0
M  END
$$$$
