
     RDKit          3D

 73 77  0  0  0  0  0  0  0  0999 V2000
   16.5630    1.5220   18.9170 C   0  0  1  0  0  0  0  0  0  0  0  0
   14.0370    0.9750   24.7010 C   0  0  2  0  0  0  0  0  0  0  0  0
   18.0770   -1.9530   18.5980 C   0  0  2  0  0  0  0  0  0  0  0  0
   17.1220   -3.2990   16.6960 C   0  0  0  0  0  0  0  0  0  0  0  0
   16.9960   -2.6680   17.8490 C   0  0  0  0  0  0  0  0  0  0  0  0
   18.9480   -4.0830   12.6360 C   0  0  2  0  0  0  0  0  0  0  0  0
   18.1280    0.2350   15.8310 C   0  0  0  0  0  0  0  0  0  0  0  0
   17.6000   -0.5960   19.1440 C   0  0  1  0  0  0  0  0  0  0  0  0
   18.0680    0.7490   17.0390 C   0  0  0  0  0  0  0  0  0  0  0  0
   18.3850   -3.4950   15.9620 C   0  0  0  0  0  0  0  0  0  0  0  0
   19.4000   -4.6160   13.9810 C   0  0  1  0  0  0  0  0  0  0  0  0
   19.7180   -2.9000   12.0630 C   0  0  2  0  0  0  0  0  0  0  0  0
   19.0930    0.5590   14.8110 C   0  0  0  0  0  0  0  0  0  0  0  0
   20.1450    0.2330   12.5820 C   0  0  0  0  0  0  0  0  0  0  0  0
   19.1480   -0.0580   13.6200 C   0  0  2  0  0  0  0  0  0  0  0  0
   18.8900   -1.6210   11.8650 C   0  0  1  0  0  0  0  0  0  0  0  0
   18.3260   -4.2950   14.8650 N   0  0  0  0  0  0  0  0  0  0  0  0
   14.9220    1.5380   23.5830 C   0  0  2  0  0  0  0  0  0  0  0  0
   17.0470    0.3580   18.0530 C   0  0  2  0  0  0  0  0  0  0  0  0
   14.5010    1.3300   26.0990 C   0  0  1  0  0  0  0  0  0  0  0  0
   12.8320    2.9850   23.0670 C   0  0  1  0  0  0  0  0  0  0  0  0
   14.3320    2.7810   22.8860 C   0  0  2  0  0  0  0  0  0  0  0  0
   14.7110    2.6360   21.4030 C   0  0  1  0  0  0  0  0  0  0  0  0
   18.2370   -1.0420   13.1070 C   0  0  2  0  0  0  0  0  0  0  0  0
   15.6900    1.4800   21.2940 C   0  0  1  0  0  0  0  0  0  0  0  0
   15.1390    0.5680   22.4010 C   0  0  1  0  0  0  0  0  0  0  0  0
   15.7320    0.7470   19.9460 C   0  0  2  0  0  0  0  0  0  0  0  0
   16.3680   -0.6680   20.0820 C   0  0  2  0  0  0  0  0  0  0  0  0
   16.5810   -1.1370   21.4930 C   0  0  0  0  0  0  0  0  0  0  0  0
   16.0300   -0.6170   22.5810 C   0  0  0  0  0  0  0  0  0  0  0  0
   19.9060   -0.6250   11.5720 N   0  0  0  0  0  0  0  0  0  0  0  0
   19.4470   -3.0140   16.3020 O   0  0  0  0  0  0  0  0  0  0  0  0
   19.9920    1.5110   15.1110 O   0  0  0  0  0  0  0  0  0  0  0  0
   21.0610    1.0540   12.6320 O   0  0  0  0  0  0  0  0  0  0  0  0
   17.1200   -1.3630   13.4810 O   0  0  0  0  0  0  0  0  0  0  0  0
   17.3860    2.0810   19.3610 H   0  0  0  0  0  0  0  0  0  0  0  0
   15.9810    2.2480   18.3510 H   0  0  0  0  0  0  0  0  0  0  0  0
   13.9810   -0.1090   24.6170 H   0  0  0  0  0  0  0  0  0  0  0  0
   13.0140    1.3250   24.5730 H   0  0  0  0  0  0  0  0  0  0  0  0
   18.9430   -1.8210   17.9510 H   0  0  0  0  0  0  0  0  0  0  0  0
   18.4380   -2.5850   19.4080 H   0  0  0  0  0  0  0  0  0  0  0  0
   16.2610   -3.7350   16.1920 H   0  0  0  0  0  0  0  0  0  0  0  0
   16.0210   -2.6450   18.3340 H   0  0  0  0  0  0  0  0  0  0  0  0
   17.8960   -3.8100   12.6940 H   0  0  0  0  0  0  0  0  0  0  0  0
   18.9700   -4.8910   11.9050 H   0  0  0  0  0  0  0  0  0  0  0  0
   17.4040   -0.5130   15.5130 H   0  0  0  0  0  0  0  0  0  0  0  0
   18.4170   -0.1030   19.6700 H   0  0  0  0  0  0  0  0  0  0  0  0
   18.7790    1.5060   17.3690 H   0  0  0  0  0  0  0  0  0  0  0  0
   19.6030   -5.6860   13.9660 H   0  0  0  0  0  0  0  0  0  0  0  0
   20.3400   -4.1790   14.3140 H   0  0  0  0  0  0  0  0  0  0  0  0
   20.1690   -3.1840   11.1140 H   0  0  0  0  0  0  0  0  0  0  0  0
   20.5710   -2.6770   12.7020 H   0  0  0  0  0  0  0  0  0  0  0  0
   18.0780   -1.7750   11.1550 H   0  0  0  0  0  0  0  0  0  0  0  0
   17.4250   -4.7100   14.6500 H   0  0  0  0  0  0  0  0  0  0  0  0
   15.8960    1.7820   24.0040 H   0  0  0  0  0  0  0  0  0  0  0  0
   16.2240   -0.0910   17.4990 H   0  0  0  0  0  0  0  0  0  0  0  0
   15.4170    0.8050   26.3630 H   0  0  0  0  0  0  0  0  0  0  0  0
   14.7000    2.3960   26.1960 H   0  0  0  0  0  0  0  0  0  0  0  0
   13.7530    1.0710   26.8470 H   0  0  0  0  0  0  0  0  0  0  0  0
   12.2690    2.1160   22.7310 H   0  0  0  0  0  0  0  0  0  0  0  0
   12.5770    3.1550   24.1120 H   0  0  0  0  0  0  0  0  0  0  0  0
   12.4770    3.8440   22.5000 H   0  0  0  0  0  0  0  0  0  0  0  0
   14.8470    3.6450   23.3020 H   0  0  0  0  0  0  0  0  0  0  0  0
   13.8300    2.4700   20.7840 H   0  0  0  0  0  0  0  0  0  0  0  0
   15.1380    3.5580   21.0110 H   0  0  0  0  0  0  0  0  0  0  0  0
   16.7010    1.8230   21.5110 H   0  0  0  0  0  0  0  0  0  0  0  0
   14.1520    0.1860   22.1420 H   0  0  0  0  0  0  0  0  0  0  0  0
   14.7420    0.5580   19.5340 H   0  0  0  0  0  0  0  0  0  0  0  0
   15.6380   -1.3800   19.7000 H   0  0  0  0  0  0  0  0  0  0  0  0
   17.2600   -1.9860   21.5620 H   0  0  0  0  0  0  0  0  0  0  0  0
   16.1760   -1.0070   23.5820 H   0  0  0  0  0  0  0  0  0  0  0  0
   20.3800   -0.6000   10.6750 H   0  0  0  0  0  0  0  0  0  0  0  0
   19.8720    1.8680   16.0290 H   0  0  0  0  0  0  0  0  0  0  0  0
  5  4  1  0
  5  3  1  0
  8  3  1  0
  9  7  1  0
 10  4  1  0
 11  6  1  0
 12  6  1  0
 13  7  1  0
 15 14  1  6
 15 13  1  0
 16 12  1  0
 17 11  1  0
 17 10  1  0
 18  2  1  0
 19  9  1  0
 19  8  1  0
 19  1  1  0
 20  2  1  0
 22 21  1  0
 22 18  1  0
 23 22  1  0
 24 16  1  0
 24 15  1  0
 25 23  1  0
 26 25  1  0
 26 18  1  0
 27 25  1  0
 27  1  1  0
 28 27  1  0
 28  8  1  0
 29 28  1  0
 30 26  1  0
 30 29  1  0
 31 16  1  0
 31 14  1  0
 32 10  1  0
 33 13  1  0
 34 14  1  0
 24 35  1  6
  1 36  1  1
 37  1  1  0
  2 38  1  1
 39  2  1  0
  3 40  1  6
 41  3  1  0
 42  4  1  0
 43  5  1  0
  6 44  1  1
 45  6  1  0
 46  7  1  0
  8 47  1  1
 48  9  1  0
 11 49  1  6
 50 11  1  0
 12 51  1  6
 52 12  1  0
 16 53  1  6
 54 17  1  0
 18 55  1  1
 19 56  1  6
 20 57  1  1
 58 20  1  0
 59 20  1  0
 21 60  1  6
 61 21  1  0
 62 21  1  0
 22 63  1  1
 23 64  1  6
 65 23  1  0
 25 66  1  1
 26 67  1  6
 27 68  1  6
 28 69  1  6
 70 29  1  0
 71 30  1  0
 72 31  1  0
 73 33  1  0
M  END
$$$$
