
     RDKit          3D

 11 12  0  0  0  0  0  0  0  0999 V2000
   48.7280   45.9310   12.9420 N   0  0  0  0  0  0  0  0  0  0  0  0
   48.9310   46.3320   11.6200 C   0  0  0  0  0  0  0  0  0  0  0  0
   47.8430   46.2770   11.0220 N   0  0  0  0  0  0  0  0  0  0  0  0
   46.8900   45.8360   11.8300 C   0  0  0  0  0  0  0  0  0  0  0  0
   47.4330   45.5820   13.0400 C   0  0  0  0  0  0  0  0  0  0  0  0
   46.8080   45.0660   14.3170 C   0  0  1  0  0  0  0  0  0  0  0  0
   47.3370   43.9030   14.9040 C   0  0  0  0  0  0  0  0  0  0  0  0
   46.8150   43.4730   16.1540 C   0  0  0  0  0  0  0  0  0  0  0  0
   45.8500   44.2560   16.7780 C   0  0  0  0  0  0  0  0  0  0  0  0
   45.2880   45.3700   16.1590 C   0  0  0  0  0  0  0  0  0  0  0  0
   45.8600   45.7890   14.9510 C   0  0  0  0  0  0  0  0  0  0  0  0
  2  1  1  0
  3  2  1  0
  4  3  1  0
  5  4  1  0
  5  1  1  0
  6  5  1  1
  7  6  1  0
  8  7  1  0
  9  8  1  0
 10  9  1  0
 11 10  1  0
 11  6  1  0
M  END
$$$$
