
     RDKit          3D

 17 18  0  0  0  0  0  0  0  0999 V2000
   47.8880   46.5280   11.0310 N   0  0  0  0  0  0  0  0  0  0  0  0
   48.0450   45.3490   11.7620 C   0  0  0  0  0  0  0  0  0  0  0  0
   47.6660   45.2520   13.0220 C   0  0  1  0  0  0  0  0  0  0  0  0
   47.1290   46.2660   13.7430 C   0  0  0  0  0  0  0  0  0  0  0  0
   46.8040   47.5020   13.0720 C   0  0  0  0  0  0  0  0  0  0  0  0
   47.2490   47.5760   11.7570 C   0  0  0  0  0  0  0  0  0  0  0  0
   47.7160   43.8630   13.6880 C   0  0  1  0  0  0  0  0  0  0  0  0
   48.7760   43.3690   13.8290 O   0  0  0  0  0  0  0  0  0  0  0  0
   45.4460   43.2670   12.8700 C   0  0  0  0  0  0  0  0  0  0  0  0
   46.3590   43.3260   14.1640 C   0  0  1  0  0  0  0  0  0  0  0  0
   46.5030   41.7370   14.3860 C   0  0  0  0  0  0  0  0  0  0  0  0
   45.8330   43.9110   15.3670 C   0  0  2  0  0  0  0  0  0  0  0  0
   44.5440   44.4080   15.4280 C   0  0  0  0  0  0  0  0  0  0  0  0
   44.0200   45.0780   16.5120 N   0  0  0  0  0  0  0  0  0  0  0  0
   44.8220   45.2460   17.6310 C   0  0  0  0  0  0  0  0  0  0  0  0
   46.1430   44.7750   17.6560 C   0  0  0  0  0  0  0  0  0  0  0  0
   46.6010   44.1400   16.4980 C   0  0  0  0  0  0  0  0  0  0  0  0
  2  1  1  0
  3  2  1  6
  4  3  1  0
  5  4  1  0
  6  5  1  0
  6  1  1  0
  7  3  1  0
  7  8  1  1
 10  9  1  6
 10  7  1  0
 11 10  1  0
 12 10  1  0
 12 13  1  6
 14 13  1  0
 15 14  1  0
 16 15  1  0
 17 12  1  0
 17 16  1  0
M  END
$$$$
