
     RDKit          3D

 74 79  0  0  0  0  0  0  0  0999 V2000
   17.5560   -0.6150   19.1500 C   0  0  2  0  0  0  0  0  0  0  0  0
   14.2820    1.0790   24.9040 C   0  0  1  0  0  0  0  0  0  0  0  0
   14.6260    1.7650   26.2130 C   0  0  2  0  0  0  0  0  0  0  0  0
   17.9230    0.8590   17.1050 C   0  0  0  0  0  0  0  0  0  0  0  0
   18.4300   -3.5540   15.9120 C   0  0  0  0  0  0  0  0  0  0  0  0
   17.1270   -3.2620   16.5490 C   0  0  0  0  0  0  0  0  0  0  0  0
   19.9720   -3.4200   13.1020 C   0  0  1  0  0  0  0  0  0  0  0  0
   19.5190   -4.5670   13.9670 C   0  0  2  0  0  0  0  0  0  0  0  0
   14.9910    1.6380   23.6650 C   0  0  2  0  0  0  0  0  0  0  0  0
   14.2960    2.7760   22.8950 C   0  0  1  0  0  0  0  0  0  0  0  0
   14.6510    2.5560   21.4110 C   0  0  1  0  0  0  0  0  0  0  0  0
   15.6590    1.4270   21.4330 C   0  0  1  0  0  0  0  0  0  0  0  0
   15.2080    0.5530   22.6110 C   0  0  1  0  0  0  0  0  0  0  0  0
   15.7190    0.6590   20.1070 C   0  0  2  0  0  0  0  0  0  0  0  0
   16.4470   -0.6970   20.2100 C   0  0  2  0  0  0  0  0  0  0  0  0
   16.9470    0.3630   18.1210 C   0  0  2  0  0  0  0  0  0  0  0  0
   16.2670   -0.4640   22.7590 C   0  0  2  0  0  0  0  0  0  0  0  0
   18.9540   -3.1180   12.0140 C   0  0  1  0  0  0  0  0  0  0  0  0
   16.8490   -1.0210   21.5790 C   0  0  1  0  0  0  0  0  0  0  0  0
   16.4730    1.4660   19.0540 C   0  0  1  0  0  0  0  0  0  0  0  0
   12.7970    2.9240   23.1210 C   0  0  2  0  0  0  0  0  0  0  0  0
   17.9770   -1.9690   18.5670 C   0  0  1  0  0  0  0  0  0  0  0  0
   19.5250   -3.1400   16.3450 O   0  0  0  0  0  0  0  0  0  0  0  0
   16.9360   -2.5900   17.6840 C   0  0  0  0  0  0  0  0  0  0  0  0
   18.3460   -4.2600   14.7810 N   0  0  0  0  0  0  0  0  0  0  0  0
   19.8590    1.5740   15.0790 O   0  0  0  0  0  0  0  0  0  0  0  0
   18.9580    0.6470   14.8310 C   0  0  2  0  0  0  0  0  0  0  0  0
   18.0280    0.3450   15.9000 C   0  0  0  0  0  0  0  0  0  0  0  0
   20.1050    0.1210   12.6610 C   0  0  0  0  0  0  0  0  0  0  0  0
   18.9920   -0.0160   13.6220 C   0  0  1  0  0  0  0  0  0  0  0  0
   19.9050   -0.8220   11.7260 N   0  0  0  0  0  0  0  0  0  0  0  0
   18.7070   -1.6140   11.8660 C   0  0  2  0  0  0  0  0  0  0  0  0
   18.0730   -0.9950   13.1160 C   0  0  0  0  0  0  0  0  0  0  0  0
   21.0440    0.9220   12.7020 O   0  0  0  0  0  0  0  0  0  0  0  0
   16.9980   -1.3440   13.5630 O   0  0  0  0  0  0  0  0  0  0  0  0
   15.9670   -1.7900   22.3580 O   0  0  0  0  0  0  0  0  0  0  0  0
   18.4370   -0.1530   19.5930 H   0  0  0  0  0  0  0  0  0  0  0  0
   14.5170    0.0210   25.0080 H   0  0  0  0  0  0  0  0  0  0  0  0
   13.2040    1.1000   24.7500 H   0  0  0  0  0  0  0  0  0  0  0  0
   15.3400    1.2000   26.8110 H   0  0  0  0  0  0  0  0  0  0  0  0
   13.7540    1.9120   26.8490 H   0  0  0  0  0  0  0  0  0  0  0  0
   15.0750    2.7440   26.0530 H   0  0  0  0  0  0  0  0  0  0  0  0
   18.5540    1.6860   17.4270 H   0  0  0  0  0  0  0  0  0  0  0  0
   16.2490   -3.6400   16.0260 H   0  0  0  0  0  0  0  0  0  0  0  0
   20.2060   -2.5370   13.6950 H   0  0  0  0  0  0  0  0  0  0  0  0
   20.9180   -3.7020   12.6420 H   0  0  0  0  0  0  0  0  0  0  0  0
   20.3450   -4.9120   14.5870 H   0  0  0  0  0  0  0  0  0  0  0  0
   19.2760   -5.4220   13.3370 H   0  0  0  0  0  0  0  0  0  0  0  0
   15.9650    1.9950   23.9960 H   0  0  0  0  0  0  0  0  0  0  0  0
   14.7360    3.7190   23.2150 H   0  0  0  0  0  0  0  0  0  0  0  0
   13.7690    2.3020   20.8250 H   0  0  0  0  0  0  0  0  0  0  0  0
   15.0450    3.4580   20.9470 H   0  0  0  0  0  0  0  0  0  0  0  0
   16.6350    1.8640   21.6370 H   0  0  0  0  0  0  0  0  0  0  0  0
   14.2770    0.0300   22.4000 H   0  0  0  0  0  0  0  0  0  0  0  0
   14.7000    0.4860   19.7670 H   0  0  0  0  0  0  0  0  0  0  0  0
   15.7380   -1.4790   19.9420 H   0  0  0  0  0  0  0  0  0  0  0  0
   16.0990   -0.0710   17.5940 H   0  0  0  0  0  0  0  0  0  0  0  0
   16.8090   -0.3770   23.7000 H   0  0  0  0  0  0  0  0  0  0  0  0
   19.2310   -3.5440   11.0510 H   0  0  0  0  0  0  0  0  0  0  0  0
   18.0130   -3.6070   12.2630 H   0  0  0  0  0  0  0  0  0  0  0  0
   17.8770   -1.3810   21.5950 H   0  0  0  0  0  0  0  0  0  0  0  0
   15.8320    2.1850   18.5460 H   0  0  0  0  0  0  0  0  0  0  0  0
   17.2920    2.0510   19.4690 H   0  0  0  0  0  0  0  0  0  0  0  0
   12.2480    2.0290   22.8340 H   0  0  0  0  0  0  0  0  0  0  0  0
   12.3790    3.7470   22.5440 H   0  0  0  0  0  0  0  0  0  0  0  0
   12.5520    3.1350   24.1610 H   0  0  0  0  0  0  0  0  0  0  0  0
   18.8860   -1.8580   17.9770 H   0  0  0  0  0  0  0  0  0  0  0  0
   18.2490   -2.6320   19.3870 H   0  0  0  0  0  0  0  0  0  0  0  0
   15.9160   -2.4580   18.0420 H   0  0  0  0  0  0  0  0  0  0  0  0
   17.4530   -4.6110   14.4470 H   0  0  0  0  0  0  0  0  0  0  0  0
   19.7700    1.9470   15.9950 H   0  0  0  0  0  0  0  0  0  0  0  0
   17.3310   -0.4360   15.6020 H   0  0  0  0  0  0  0  0  0  0  0  0
   20.5420   -0.9910   10.9540 H   0  0  0  0  0  0  0  0  0  0  0  0
   18.0700   -1.4230   11.0040 H   0  0  0  0  0  0  0  0  0  0  0  0
  3  2  1  0
  6  5  1  0
  8  7  1  0
  9  2  1  0
 10  9  1  0
 11 10  1  0
 12 11  1  0
 13 12  1  0
 13  9  1  0
 14 12  1  0
 15 14  1  0
 15  1  1  0
 16  4  1  0
 16  1  1  0
 17 13  1  0
 18  7  1  0
 19 17  1  0
 19 15  1  0
 20 14  1  0
 20 16  1  0
 21 10  1  0
 22  1  1  0
 23  5  1  0
 24 22  1  0
 24  6  1  0
 25  8  1  0
 25  5  1  0
 27 26  1  1
 28 27  1  0
 28  4  1  0
 30 29  1  1
 30 27  1  0
 31 29  1  0
 32 31  1  0
 32 18  1  0
 33 32  1  0
 33 30  1  0
 34 29  1  0
 35 33  1  0
 36 17  1  0
 36 19  1  0
  1 37  1  1
  2 38  1  1
 39  2  1  0
  3 40  1  1
 41  3  1  0
 42  3  1  0
 43  4  1  0
 44  6  1  0
  7 45  1  1
 46  7  1  0
  8 47  1  1
 48  8  1  0
  9 49  1  1
 10 50  1  1
 11 51  1  6
 52 11  1  0
 12 53  1  1
 13 54  1  6
 14 55  1  6
 15 56  1  6
 16 57  1  6
 17 58  1  1
 18 59  1  6
 60 18  1  0
 19 61  1  6
 20 62  1  6
 63 20  1  0
 21 64  1  6
 65 21  1  0
 66 21  1  0
 22 67  1  6
 68 22  1  0
 69 24  1  0
 70 25  1  0
 71 26  1  0
 72 28  1  0
 73 31  1  0
 32 74  1  6
M  END
$$$$
