
     RDKit          3D

 52 54  0  0  0  0  0  0  0  0999 V2000
  -20.5490  -39.8360   31.7370 C   0  0  0  0  0  0  0  0  0  0  0  0
  -19.5790  -39.7870   31.0860 C   0  0  0  0  0  0  0  0  0  0  0  0
  -18.4050  -39.7250   30.3020 C   0  0  0  0  0  0  0  0  0  0  0  0
  -17.8410  -38.4740   30.1570 C   0  0  0  0  0  0  0  0  0  0  0  0
  -16.6940  -38.3320   29.3860 C   0  0  1  0  0  0  0  0  0  0  0  0
  -16.0650  -37.0300   29.2360 N   0  0  0  0  0  0  0  0  0  0  0  0
  -15.2320  -36.6980   28.1410 C   0  0  0  0  0  0  0  0  0  0  0  0
  -14.8240  -35.3440   28.0090 C   0  0  0  0  0  0  0  0  0  0  0  0
  -15.2130  -34.3200   28.9030 C   0  0  0  0  0  0  0  0  0  0  0  0
  -14.7770  -33.0360   28.7080 C   0  0  0  0  0  0  0  0  0  0  0  0
  -15.1100  -31.9720   29.5170 O   0  0  0  0  0  0  0  0  0  0  0  0
  -15.6940  -32.3450   30.7660 C   0  0  1  0  0  0  0  0  0  0  0  0
  -15.9220  -31.0050   31.5190 C   0  0  1  0  0  0  0  0  0  0  0  0
  -17.2790  -30.9490   32.0110 O   0  0  0  0  0  0  0  0  0  0  0  0
  -17.7630  -29.6200   31.7890 C   0  0  1  0  0  0  0  0  0  0  0  0
  -13.9380  -32.7240   27.6050 C   0  0  0  0  0  0  0  0  0  0  0  0
  -13.5710  -31.4390   27.4810 O   0  0  0  0  0  0  0  0  0  0  0  0
  -13.4820  -31.0430   26.1120 C   0  0  2  0  0  0  0  0  0  0  0  0
  -13.9640  -29.5830   26.2010 C   0  0  2  0  0  0  0  0  0  0  0  0
  -14.7610  -29.2690   25.1040 O   0  0  0  0  0  0  0  0  0  0  0  0
  -15.7190  -28.2540   25.5290 C   0  0  2  0  0  0  0  0  0  0  0  0
  -13.5670  -33.7220   26.7440 C   0  0  0  0  0  0  0  0  0  0  0  0
  -14.0000  -35.0270   26.9290 C   0  0  0  0  0  0  0  0  0  0  0  0
  -13.5710  -35.9720   26.0010 N   0  0  0  0  0  0  0  0  0  0  0  0
  -14.0090  -37.2030   26.2330 C   0  0  0  0  0  0  0  0  0  0  0  0
  -14.8210  -37.6400   27.2550 N   0  0  0  0  0  0  0  0  0  0  0  0
  -16.1020  -39.4570   28.7960 C   0  0  0  0  0  0  0  0  0  0  0  0
  -16.6870  -40.7090   28.9570 C   0  0  0  0  0  0  0  0  0  0  0  0
  -17.8390  -40.8480   29.7110 C   0  0  0  0  0  0  0  0  0  0  0  0
  -21.3070  -39.8750   32.2450 H   0  0  0  0  0  0  0  0  0  0  0  0
  -18.3000  -37.8040   30.6090 H   0  0  0  0  0  0  0  0  0  0  0  0
  -16.5760  -36.3780   29.4940 H   0  0  0  0  0  0  0  0  0  0  0  0
  -15.7650  -34.5730   29.6050 H   0  0  0  0  0  0  0  0  0  0  0  0
  -16.5100  -32.8030   30.6850 H   0  0  0  0  0  0  0  0  0  0  0  0
  -15.1550  -32.9110   31.2870 H   0  0  0  0  0  0  0  0  0  0  0  0
  -15.7980  -31.0980   32.4450 H   0  0  0  0  0  0  0  0  0  0  0  0
  -16.3040  -30.3510   30.9640 H   0  0  0  0  0  0  0  0  0  0  0  0
  -18.7020  -29.6010   31.7790 H   0  0  0  0  0  0  0  0  0  0  0  0
  -17.4700  -29.0380   32.4650 H   0  0  0  0  0  0  0  0  0  0  0  0
  -17.4590  -29.2840   30.9670 H   0  0  0  0  0  0  0  0  0  0  0  0
  -14.0700  -31.6090   25.6480 H   0  0  0  0  0  0  0  0  0  0  0  0
  -12.5750  -31.1300   25.8850 H   0  0  0  0  0  0  0  0  0  0  0  0
  -13.6770  -28.8040   25.7630 H   0  0  0  0  0  0  0  0  0  0  0  0
  -14.7890  -29.2140   26.4530 H   0  0  0  0  0  0  0  0  0  0  0  0
  -16.3370  -28.0430   24.8550 H   0  0  0  0  0  0  0  0  0  0  0  0
  -15.3010  -27.4480   25.7700 H   0  0  0  0  0  0  0  0  0  0  0  0
  -16.2200  -28.5270   26.2750 H   0  0  0  0  0  0  0  0  0  0  0  0
  -13.0230  -33.6420   25.9950 H   0  0  0  0  0  0  0  0  0  0  0  0
  -13.7380  -37.8610   25.6360 H   0  0  0  0  0  0  0  0  0  0  0  0
  -15.3230  -39.4080   28.2930 H   0  0  0  0  0  0  0  0  0  0  0  0
  -16.2120  -41.3710   28.5110 H   0  0  0  0  0  0  0  0  0  0  0  0
  -18.3060  -41.6320   29.8820 H   0  0  0  0  0  0  0  0  0  0  0  0
  2  1  1  0
  3  2  1  0
  4  3  1  0
  5  4  1  0
  5  6  1  1
  7  6  1  0
  8  7  1  0
  9  8  1  0
 10  9  1  0
 11 10  1  0
 12 11  1  0
 13 12  1  0
 14 13  1  0
 15 14  1  0
 16 10  1  0
 17 16  1  0
 18 17  1  0
 19 18  1  0
 20 19  1  0
 21 20  1  0
 22 16  1  0
 23 22  1  0
 23  8  1  0
 24 23  1  0
 25 24  1  0
 26 25  1  0
 26  7  1  0
 27  5  1  0
 28 27  1  0
 29 28  1  0
 29  3  1  0
 30  1  1  0
 31  4  1  0
 32  6  1  0
 33  9  1  0
 12 34  1  6
 35 12  1  0
 13 36  1  1
 37 13  1  0
 15 38  1  6
 39 15  1  0
 40 15  1  0
 18 41  1  6
 42 18  1  0
 19 43  1  6
 44 19  1  0
 21 45  1  6
 46 21  1  0
 47 21  1  0
 48 22  1  0
 49 25  1  0
 50 27  1  0
 51 28  1  0
 52 29  1  0
M  END
$$$$
