
     RDKit          3D

 45 49  0  0  0  0  0  0  0  0999 V2000
    5.0650  -15.6120   -6.4040 C   0  0  0  0  0  0  0  0  0  0  0  0
    6.9770  -14.3140   -7.6830 C   0  0  1  0  0  0  0  0  0  0  0  0
    9.0570  -14.4610   -8.4280 C   0  0  2  0  0  0  0  0  0  0  0  0
    2.2160  -13.5060   -0.6800 C   0  0  0  0  0  0  0  0  0  0  0  0
    2.4850  -12.3910    0.1020 C   0  0  0  0  0  0  0  0  0  0  0  0
    3.5410  -11.5680   -0.1250 C   0  0  0  0  0  0  0  0  0  0  0  0
    4.1240  -12.9390   -2.0060 C   0  0  0  0  0  0  0  0  0  0  0  0
    2.4990  -10.7280    1.6500 C   0  0  0  0  0  0  0  0  0  0  0  0
    0.9400  -15.1130    0.6160 C   0  0  2  0  0  0  0  0  0  0  0  0
    1.1430  -14.4930   -0.6610 C   0  0  2  0  0  0  0  0  0  0  0  0
    1.5150  -15.5490   -1.6160 C   0  0  1  0  0  0  0  0  0  0  0  0
    2.8290  -15.5470   -3.6640 C   0  0  2  0  0  0  0  0  0  0  0  0
    3.8260  -15.2150   -4.6370 C   0  0  0  0  0  0  0  0  0  0  0  0
    4.6830  -14.1660   -4.8200 C   0  0  0  0  0  0  0  0  0  0  0  0
    5.4480  -14.4290   -5.9380 C   0  0  0  0  0  0  0  0  0  0  0  0
    5.6380  -16.1950   -7.5120 C   0  0  0  0  0  0  0  0  0  0  0  0
    6.6350  -15.5070   -8.1340 C   0  0  0  0  0  0  0  0  0  0  0  0
    6.4350  -13.7600   -6.5810 C   0  0  0  0  0  0  0  0  0  0  0  0
    3.0500  -13.8190   -1.7790 C   0  0  0  0  0  0  0  0  0  0  0  0
    4.4070  -11.8170   -1.2070 C   0  0  0  0  0  0  0  0  0  0  0  0
    1.8150  -11.8760    1.2300 C   0  0  0  0  0  0  0  0  0  0  0  0
    2.5420  -14.9970   -2.4570 N   0  0  0  0  0  0  0  0  0  0  0  0
    4.1170  -16.0890   -5.6220 N   0  0  0  0  0  0  0  0  0  0  0  0
    3.5350  -10.5830    0.8060 N   0  0  0  0  0  0  0  0  0  0  0  0
    7.9380  -13.6790   -8.2900 O   0  0  0  0  0  0  0  0  0  0  0  0
    2.1730  -16.5480   -3.9280 O   0  0  0  0  0  0  0  0  0  0  0  0
   -0.1800  -16.3140    0.2290 Cl  0  0  0  0  0  0  0  0  0  0  0  0
    9.1970  -15.0480   -7.6680 H   0  0  0  0  0  0  0  0  0  0  0  0
    9.8560  -13.9150   -8.4820 H   0  0  0  0  0  0  0  0  0  0  0  0
    9.0220  -15.0660   -9.1870 H   0  0  0  0  0  0  0  0  0  0  0  0
    4.7220  -13.0680   -2.6760 H   0  0  0  0  0  0  0  0  0  0  0  0
    2.3160  -10.1730    2.3670 H   0  0  0  0  0  0  0  0  0  0  0  0
    0.5140  -14.5640    1.2930 H   0  0  0  0  0  0  0  0  0  0  0  0
    1.6780  -15.5880    1.0290 H   0  0  0  0  0  0  0  0  0  0  0  0
    0.2690  -14.1670   -0.9290 H   0  0  0  0  0  0  0  0  0  0  0  0
    1.8240  -16.3260   -1.1260 H   0  0  0  0  0  0  0  0  0  0  0  0
    0.7370  -15.8870   -2.0910 H   0  0  0  0  0  0  0  0  0  0  0  0
    4.7230  -13.4130   -4.3090 H   0  0  0  0  0  0  0  0  0  0  0  0
    5.3750  -17.0280   -7.8310 H   0  0  0  0  0  0  0  0  0  0  0  0
    7.0370  -15.8500   -8.8990 H   0  0  0  0  0  0  0  0  0  0  0  0
    6.6930  -12.9260   -6.2600 H   0  0  0  0  0  0  0  0  0  0  0  0
    5.1490  -11.2880   -1.3950 H   0  0  0  0  0  0  0  0  0  0  0  0
    1.0490  -12.1770    1.6640 H   0  0  0  0  0  0  0  0  0  0  0  0
    3.6920  -16.8340   -5.6920 H   0  0  0  0  0  0  0  0  0  0  0  0
    4.0770   -9.9260    0.9230 H   0  0  0  0  0  0  0  0  0  0  0  0
  5  4  1  0
  6  5  1  0
 10  9  1  0
 10  4  1  0
 11 10  1  0
 13 12  1  0
 14 13  1  0
 15  1  1  0
 15 14  1  0
 16  1  1  0
 17 16  1  0
 17  2  1  0
 18 15  1  0
 18  2  1  0
 19  7  1  0
 19  4  1  0
 20  7  1  0
 20  6  1  0
 21  5  1  0
 21  8  1  0
 22 19  1  0
 22 12  1  0
 22 11  1  0
 23  1  1  0
 23 13  1  0
 24  6  1  0
 24  8  1  0
 25  3  1  0
  2 25  1  1
 12 26  1  1
 27  9  1  0
  3 28  1  1
 29  3  1  0
 30  3  1  0
 31  7  1  0
 32  8  1  0
  9 33  1  1
 34  9  1  0
 10 35  1  6
 11 36  1  1
 37 11  1  0
 38 14  1  0
 39 16  1  0
 40 17  1  0
 41 18  1  0
 42 20  1  0
 43 21  1  0
 44 23  1  0
 45 24  1  0
M  END
$$$$
