
     RDKit          3D

 29 32  0  0  0  0  0  0  0  0999 V2000
   13.0220   -9.8640   14.5000 C   0  0  0  0  0  0  0  0  0  0  0  0
   10.6500  -12.7480   15.0560 O   0  0  0  0  0  0  0  0  0  0  0  0
   12.1000  -11.0360   14.1290 C   0  0  0  0  0  0  0  0  0  0  0  0
   16.3750   -0.3120   16.3580 O   0  0  0  0  0  0  0  0  0  0  0  0
   11.4190  -11.5850   15.3860 C   0  0  1  0  0  0  0  0  0  0  0  0
   10.5290  -10.4980   15.9960 C   0  0  0  0  0  0  0  0  0  0  0  0
   11.3580   -9.2410   16.2090 C   0  0  0  0  0  0  0  0  0  0  0  0
   11.2890   -8.6560   17.4150 C   0  0  0  0  0  0  0  0  0  0  0  0
   12.1880   -7.5180   17.8330 C   0  0  0  0  0  0  0  0  0  0  0  0
   12.5690   -6.6750   16.6170 C   0  0  2  0  0  0  0  0  0  0  0  0
   13.2220   -7.6230   15.5980 C   0  0  1  0  0  0  0  0  0  0  0  0
   12.2290   -8.6850   15.0890 C   0  0  1  0  0  0  0  0  0  0  0  0
   13.9480   -6.8810   14.4530 C   0  0  0  0  0  0  0  0  0  0  0  0
   14.9130   -5.8060   14.9690 C   0  0  0  0  0  0  0  0  0  0  0  0
   14.1840   -4.7850   15.8430 C   0  0  1  0  0  0  0  0  0  0  0  0
   13.5510   -5.5600   16.9980 C   0  0  1  0  0  0  0  0  0  0  0  0
   13.1220   -4.5150   18.0190 C   0  0  0  0  0  0  0  0  0  0  0  0
   14.2300   -3.4720   17.8960 C   0  0  0  0  0  0  0  0  0  0  0  0
   15.0800   -3.8480   16.6680 C   0  0  2  0  0  0  0  0  0  0  0  0
   13.1810   -3.9780   14.9970 C   0  0  0  0  0  0  0  0  0  0  0  0
   11.3190   -8.0620   14.0240 C   0  0  0  0  0  0  0  0  0  0  0  0
   15.6560   -2.5970   15.9640 C   0  0  2  0  0  0  0  0  0  0  0  0
   16.5770   -2.9300   14.7790 C   0  0  0  0  0  0  0  0  0  0  0  0
   16.3320   -1.6270   16.9480 C   0  0  1  0  0  0  0  0  0  0  0  0
   17.7340   -2.0610   17.3610 C   0  0  0  0  0  0  0  0  0  0  0  0
   18.0760   -1.6350   18.7880 C   0  0  0  0  0  0  0  0  0  0  0  0
   19.0050   -2.5920   19.5380 C   0  0  2  0  0  0  0  0  0  0  0  0
   19.5410   -1.9150   20.8010 C   0  0  0  0  0  0  0  0  0  0  0  0
   20.1850   -3.0790   18.7060 C   0  0  0  0  0  0  0  0  0  0  0  0
  3  1  1  0
  5  2  1  6
  5  3  1  0
  6  5  1  0
  7  6  1  0
  8  7  1  0
  9  8  1  0
 10  9  1  1
 11 10  1  0
 12 11  1  0
 12  7  1  0
 12  1  1  0
 11 13  1  6
 14 13  1  0
 15 14  1  0
 16 10  1  0
 16 15  1  0
 16 17  1  1
 18 17  1  0
 19 15  1  0
 19 18  1  1
 15 20  1  6
 12 21  1  6
 22 19  1  0
 22 23  1  6
 24 22  1  0
 24  4  1  6
 25 24  1  0
 26 25  1  0
 27 26  1  0
 27 28  1  1
 29 27  1  0
M  END
$$$$
