
     RDKit          3D

 29 32  0  0  0  0  0  0  0  0999 V2000
  -36.6090   -9.6770   56.3910 C   0  0  0  0  0  0  0  0  0  0  0  0
  -39.0230  -12.5670   56.8650 O   0  0  0  0  0  0  0  0  0  0  0  0
  -37.4760  -10.8890   56.0130 C   0  0  0  0  0  0  0  0  0  0  0  0
  -34.6270   -1.5740   57.8570 O   0  0  0  0  0  0  0  0  0  0  0  0
  -38.2630  -11.4030   57.2240 C   0  0  1  0  0  0  0  0  0  0  0  0
  -39.1820  -10.2810   57.7290 C   0  0  0  0  0  0  0  0  0  0  0  0
  -38.3350   -9.0520   58.0150 C   0  0  0  0  0  0  0  0  0  0  0  0
  -38.4130   -8.5160   59.2520 C   0  0  0  0  0  0  0  0  0  0  0  0
  -37.6930   -7.2570   59.6890 C   0  0  0  0  0  0  0  0  0  0  0  0
  -37.1190   -6.4730   58.5100 C   0  0  2  0  0  0  0  0  0  0  0  0
  -36.4530   -7.4230   57.5000 C   0  0  1  0  0  0  0  0  0  0  0  0
  -37.4240   -8.4880   56.9320 C   0  0  1  0  0  0  0  0  0  0  0  0
  -35.6790   -6.6490   56.4130 C   0  0  0  0  0  0  0  0  0  0  0  0
  -34.7130   -5.5970   56.9850 C   0  0  0  0  0  0  0  0  0  0  0  0
  -35.4250   -4.6070   57.9140 C   0  0  1  0  0  0  0  0  0  0  0  0
  -36.1080   -5.4240   59.0040 C   0  0  1  0  0  0  0  0  0  0  0  0
  -36.5790   -4.3940   60.0300 C   0  0  0  0  0  0  0  0  0  0  0  0
  -35.4530   -3.3620   60.0150 C   0  0  0  0  0  0  0  0  0  0  0  0
  -34.5210   -3.7770   58.8580 C   0  0  2  0  0  0  0  0  0  0  0  0
  -36.4220   -3.7390   57.1150 C   0  0  0  0  0  0  0  0  0  0  0  0
  -38.2890   -7.8700   55.8190 C   0  0  0  0  0  0  0  0  0  0  0  0
  -33.7160   -2.5780   58.3090 C   0  0  1  0  0  0  0  0  0  0  0  0
  -32.8080   -2.9540   57.1350 C   0  0  0  0  0  0  0  0  0  0  0  0
  -32.8730   -1.8940   59.4040 C   0  0  0  0  0  0  0  0  0  0  0  0
  -31.8260   -2.7890   60.0860 C   0  0  0  0  0  0  0  0  0  0  0  0
  -31.1830   -2.0880   61.2780 C   0  0  0  0  0  0  0  0  0  0  0  0
  -30.2560   -2.9960   62.0820 C   0  0  2  0  0  0  0  0  0  0  0  0
  -29.6260   -2.2050   63.2260 C   0  0  0  0  0  0  0  0  0  0  0  0
  -29.1670   -3.6380   61.2330 C   0  0  0  0  0  0  0  0  0  0  0  0
  3  1  1  0
  5  2  1  6
  5  3  1  0
  6  5  1  0
  7  6  1  0
  8  7  1  0
  9  8  1  0
 10  9  1  1
 11 10  1  0
 12  7  1  0
 12 11  1  0
 12  1  1  0
 11 13  1  6
 14 13  1  0
 15 14  1  0
 16 10  1  0
 16 15  1  0
 16 17  1  1
 18 17  1  0
 19 15  1  0
 19 18  1  1
 15 20  1  6
 12 21  1  6
 22 19  1  0
 22  4  1  0
 22 23  1  6
 24 22  1  0
 25 24  1  0
 26 25  1  0
 27 26  1  0
 27 28  1  1
 29 27  1  0
M  END
$$$$
