
     RDKit          3D

  6  6  0  0  0  0  0  0  0  0999 V2000
   40.0410   29.6640    8.5890 C   0  0  0  0  0  0  0  0  0  0  0  0
   38.8030   29.9670    8.0960 N   0  0  0  0  0  0  0  0  0  0  0  0
   37.9980   30.3680    9.2030 N   0  0  0  0  0  0  0  0  0  0  0  0
   39.9390   29.8900    9.9320 C   0  0  0  0  0  0  0  0  0  0  0  0
   41.0910   29.6620   10.8490 C   0  0  0  0  0  0  0  0  0  0  0  0
   38.7080   30.3260   10.3570 C   0  0  0  0  0  0  0  0  0  0  0  0
  2  1  1  0
  3  2  1  0
  4  1  1  0
  5  4  1  0
  6  3  1  0
  6  4  1  0
M  END
$$$$
