
     RDKit          3D

 17 17  0  0  0  0  0  0  0  0999 V2000
   11.9910   -5.9390  -18.7990 O   0  0  0  0  0  0  0  0  0  0  0  0
   10.7600   -5.9400  -19.0560 C   0  0  0  0  0  0  0  0  0  0  0  0
   10.1630   -6.9310  -19.5400 O   0  0  0  0  0  0  0  0  0  0  0  0
    9.9690   -4.6870  -18.7810 C   0  0  0  0  0  0  0  0  0  0  0  0
    8.4560   -4.8970  -18.8020 C   0  0  0  0  0  0  0  0  0  0  0  0
    7.8960   -5.5470  -17.5380 C   0  0  0  0  0  0  0  0  0  0  0  0
    6.5560   -4.9010  -17.2110 C   0  0  0  0  0  0  0  0  0  0  0  0
    5.9590   -5.3970  -15.8940 C   0  0  0  0  0  0  0  0  0  0  0  0
    5.1940   -4.3160  -15.1190 C   0  0  0  0  0  0  0  0  0  0  0  0
    4.2910   -4.9950  -14.1010 C   0  0  0  0  0  0  0  0  0  0  0  0
    3.8800   -4.2090  -12.8560 C   0  0  0  0  0  0  0  0  0  0  0  0
    3.7340   -5.2150  -11.6930 C   0  0  0  0  0  0  0  0  0  0  0  0
    4.8160   -5.0240  -10.7220 N   0  0  0  0  0  0  0  0  0  0  0  0
    4.7440   -4.3450   -9.5680 C   0  0  0  0  0  0  0  0  0  0  0  0
    5.9650   -4.3480   -8.9820 N   0  0  0  0  0  0  0  0  0  0  0  0
    6.7870   -5.0480   -9.7560 C   0  0  0  0  0  0  0  0  0  0  0  0
    6.0710   -5.4620  -10.8510 C   0  0  0  0  0  0  0  0  0  0  0  0
  2  1  1  0
  3  2  1  0
  4  2  1  0
  5  4  1  0
  6  5  1  0
  7  6  1  0
  8  7  1  0
  9  8  1  0
 10  9  1  0
 11 10  1  0
 12 11  1  0
 13 12  1  0
 14 13  1  0
 15 14  1  0
 16 15  1  0
 17 13  1  0
 17 16  1  0
M  END
$$$$
