
     RDKit          3D

 15 16  0  0  0  0  0  0  0  0999 V2000
   26.3750   24.3640   12.8790 N   0  0  0  0  0  0  0  0  0  0  0  0
   26.9340   23.7470   11.7940 C   0  0  0  0  0  0  0  0  0  0  0  0
   26.4580   24.3510   10.6980 N   0  0  0  0  0  0  0  0  0  0  0  0
   25.6120   25.3200   11.0470 C   0  0  0  0  0  0  0  0  0  0  0  0
   25.5520   25.3400   12.4330 C   0  0  0  0  0  0  0  0  0  0  0  0
   26.6300   24.0240   14.3350 C   0  0  0  0  0  0  0  0  0  0  0  0
   24.7360   26.2630   13.3060 C   0  0  0  0  0  0  0  0  0  0  0  0
   23.2760   25.7600   13.4270 C   0  0  1  0  0  0  0  0  0  0  0  0
   23.3010   24.2780   13.8380 C   0  0  0  0  0  0  0  0  0  0  0  0
   23.4670   24.3240   15.2640 O   0  0  0  0  0  0  0  0  0  0  0  0
   22.9850   25.5820   15.7410 C   0  0  0  0  0  0  0  0  0  0  0  0
   22.5300   26.4390   14.5980 C   0  0  1  0  0  0  0  0  0  0  0  0
   22.9020   27.9170   14.8340 C   0  0  0  0  0  0  0  0  0  0  0  0
   22.0020   28.5440   15.8510 C   0  0  0  0  0  0  0  0  0  0  0  0
   22.9510   25.9030   16.9180 O   0  0  0  0  0  0  0  0  0  0  0  0
  2  1  1  0
  3  2  1  0
  4  3  1  0
  5  4  1  0
  5  1  1  0
  6  1  1  0
  7  5  1  0
  8  7  1  1
  9  8  1  0
 10  9  1  0
 11 10  1  0
 12 11  1  0
 12  8  1  0
 12 13  1  1
 14 13  1  0
 15 11  1  0
M  END
$$$$
