
     RDKit          3D

  9  9  0  0  0  0  0  0  0  0999 V2000
   41.0670   76.8980   40.4320 C   0  0  0  0  0  0  0  0  0  0  0  0
   41.7400   76.0100   39.5520 O   0  0  0  0  0  0  0  0  0  0  0  0
   42.2930   76.5570   38.4060 C   0  0  2  0  0  0  0  0  0  0  0  0
   42.3620   77.9470   38.1920 C   0  0  0  0  0  0  0  0  0  0  0  0
   42.9340   78.3650   36.9930 C   0  0  0  0  0  0  0  0  0  0  0  0
   43.3890   77.4820   36.0240 C   0  0  0  0  0  0  0  0  0  0  0  0
   43.3000   76.0950   36.2330 C   0  0  0  0  0  0  0  0  0  0  0  0
   42.7130   75.6840   37.4390 C   0  0  0  0  0  0  0  0  0  0  0  0
   42.5880   74.3160   37.7090 O   0  0  0  0  0  0  0  0  0  0  0  0
  2  1  1  0
  3  2  1  6
  4  3  1  0
  5  4  1  0
  6  5  1  0
  7  6  1  0
  8  7  1  0
  8  3  1  0
  9  8  1  0
M  END
$$$$
