
     RDKit          3D

 51 57  0  0  0  0  0  0  0  0999 V2000
  186.8630   14.2360   43.8750 C   0  0  0  0  0  0  0  0  0  0  0  0
  183.7620   11.4620   41.1120 C   0  0  0  0  0  0  0  0  0  0  0  0
  185.6790    9.7550   43.0550 O   0  0  0  0  0  0  0  0  0  0  0  0
  184.5190   13.6580   40.4650 O   0  0  0  0  0  0  0  0  0  0  0  0
  195.2860   -3.5720   33.6020 F   0  0  0  0  0  0  0  0  0  0  0  0
  196.5500   -7.8420   32.0270 F   0  0  0  0  0  0  0  0  0  0  0  0
  195.9220   -5.7010   32.7960 C   0  0  0  0  0  0  0  0  0  0  0  0
  193.1060    0.1890   39.5160 C   0  0  0  0  0  0  0  0  0  0  0  0
  190.8810   -0.6860   39.3900 C   0  0  0  0  0  0  0  0  0  0  0  0
  192.6260    1.3110   40.1800 C   0  0  0  0  0  0  0  0  0  0  0  0
  190.4020    0.4390   40.0560 C   0  0  0  0  0  0  0  0  0  0  0  0
  189.3270    7.2800   40.5210 C   0  0  0  0  0  0  0  0  0  0  0  0
  188.1870    6.6600   42.5260 C   0  0  0  0  0  0  0  0  0  0  0  0
  188.8490    8.5740   40.6600 C   0  0  0  0  0  0  0  0  0  0  0  0
  187.7180    7.9660   42.6400 C   0  0  0  0  0  0  0  0  0  0  0  0
  196.1500   -7.0480   33.0370 C   0  0  0  0  0  0  0  0  0  0  0  0
  199.3120   -4.7080   36.0470 C   0  0  0  0  0  0  0  0  0  0  0  0
  195.3150   -5.4390   35.1880 C   0  0  0  0  0  0  0  0  0  0  0  0
  197.9010   -5.1010   37.7040 C   0  0  0  0  0  0  0  0  0  0  0  0
  188.1200   11.2600   41.1630 C   0  0  0  0  0  0  0  0  0  0  0  0
  185.8440   14.2150   42.7580 C   0  0  0  0  0  0  0  0  0  0  0  0
  193.7340   -3.6400   35.8050 C   0  0  0  0  0  0  0  0  0  0  0  0
  189.3860    2.6630   41.3830 C   0  0  0  0  0  0  0  0  0  0  0  0
  191.3700    3.8050   40.4780 C   0  0  0  0  0  0  0  0  0  0  0  0
  189.0220    3.9560   42.1100 C   0  0  0  0  0  0  0  0  0  0  0  0
  190.9830    5.0300   41.2910 C   0  0  0  0  0  0  0  0  0  0  0  0
  192.1190   -2.3700   37.2660 C   0  0  0  0  0  0  0  0  0  0  0  0
  196.0100   -3.6350   36.7670 C   0  0  0  0  0  0  0  0  0  0  0  0
  199.1370   -5.3620   37.2210 N   0  0  0  0  0  0  0  0  0  0  0  0
  198.1850   -4.0190   35.7600 N   0  0  0  0  0  0  0  0  0  0  0  0
  187.3160   12.3240   41.4280 N   0  0  0  0  0  0  0  0  0  0  0  0
  192.7330   -1.9180   38.4680 O   0  0  0  0  0  0  0  0  0  0  0  0
  194.3670   -5.2540   37.4200 O   0  0  0  0  0  0  0  0  0  0  0  0
  195.5080   -4.8770   33.8300 C   0  0  0  0  0  0  0  0  0  0  0  0
  195.5510   -6.7940   35.3770 C   0  0  0  0  0  0  0  0  0  0  0  0
  192.2380   -0.8160   39.1160 C   0  0  0  0  0  0  0  0  0  0  0  0
  191.2710    1.4520   40.4520 C   0  0  0  0  0  0  0  0  0  0  0  0
  189.0020    6.3140   41.4580 C   0  0  0  0  0  0  0  0  0  0  0  0
  188.0370    8.9640   41.7190 C   0  0  0  0  0  0  0  0  0  0  0  0
  195.9650   -7.5810   34.3080 C   0  0  0  0  0  0  0  0  0  0  0  0
  186.4310   10.5470   42.3760 C   0  0  2  0  0  0  0  0  0  0  0  0
  184.1060   12.8680   41.5860 C   0  0  2  0  0  0  0  0  0  0  0  0
  185.2170   12.8350   42.6260 C   0  0  1  0  0  0  0  0  0  0  0  0
  190.8410    2.6030   41.1440 N   0  0  0  0  0  0  0  0  0  0  0  0
  189.5190    5.0290   41.2430 N   0  0  0  0  0  0  0  0  0  0  0  0
  197.3070   -4.3100   36.8100 N   0  0  0  0  0  0  0  0  0  0  0  0
  187.5810   10.2170   41.8050 N   0  0  0  0  0  0  0  0  0  0  0  0
  186.2480   11.8530   42.2130 N   0  0  0  0  0  0  0  0  0  0  0  0
  194.8700   -4.5310   36.2960 C   0  0  2  0  0  0  0  0  0  0  0  0
  193.2880   -4.5210   38.0020 C   0  0  0  0  0  0  0  0  0  0  0  0
  192.6430   -3.7440   36.8600 C   0  0  2  0  0  0  0  0  0  0  0  0
 10  8  1  0
 11  9  1  0
 14 12  1  0
 15 13  1  0
 16  7  1  0
 16  6  1  0
 21  1  1  0
 25 23  1  0
 26 24  1  0
 29 19  1  0
 29 17  1  0
 30 17  1  0
 31 20  1  0
 32 27  1  0
 34  7  1  0
 34 18  1  0
 34  5  1  0
 35 18  1  0
 36 32  1  0
 36  9  1  0
 36  8  1  0
 37 11  1  0
 37 10  1  0
 38 13  1  0
 38 12  1  0
 39 15  1  0
 39 14  1  0
 40 35  1  0
 40 16  1  0
 41  3  1  1
 42  4  1  0
 42  2  1  6
 43 42  1  0
 43 21  1  6
 44 23  1  0
 44 37  1  0
 44 24  1  0
 45 25  1  0
 45 38  1  0
 45 26  1  0
 46 28  1  0
 46 30  1  0
 46 19  1  0
 47 41  1  0
 47 39  1  0
 47 20  1  0
 48 43  1  0
 48 41  1  0
 48 31  1  0
 49 33  1  0
 49 28  1  1
 49 22  1  0
 49 18  1  0
 50 33  1  0
 51 50  1  0
 51 27  1  1
 51 22  1  0
M  END
$$$$
