
     RDKit          3D

 51 54  0  0  0  0  0  0  0  0999 V2000
   15.3050   -7.1150  -28.1580 C   0  0  2  0  0  0  0  0  0  0  0  0
   17.2320   -5.6300  -29.6710 C   0  0  1  0  0  0  0  0  0  0  0  0
   14.9330   -5.7910  -28.8550 C   0  0  2  0  0  0  0  0  0  0  0  0
   15.5800   -7.5740  -31.8590 C   0  0  0  0  0  0  0  0  0  0  0  0
   15.3210   -4.8870  -23.5250 C   0  0  0  0  0  0  0  0  0  0  0  0
   18.1050   -6.6340  -25.4470 C   0  0  1  0  0  0  0  0  0  0  0  0
   18.1880   -6.1250  -24.0010 C   0  0  1  0  0  0  0  0  0  0  0  0
   17.0680   -6.6830  -23.1330 C   0  0  1  0  0  0  0  0  0  0  0  0
   15.6850   -6.3760  -23.7160 C   0  0  2  0  0  0  0  0  0  0  0  0
   15.6580   -6.9110  -25.1720 C   0  0  1  0  0  0  0  0  0  0  0  0
   14.2950   -6.7940  -25.8570 C   0  0  1  0  0  0  0  0  0  0  0  0
   14.2510   -7.5490  -27.1610 C   0  0  1  0  0  0  0  0  0  0  0  0
   16.6850   -7.0450  -27.5000 C   0  0  1  0  0  0  0  0  0  0  0  0
   17.7090   -6.5030  -28.5040 C   0  0  1  0  0  0  0  0  0  0  0  0
   15.8000   -5.8250  -30.0950 C   0  0  2  0  0  0  0  0  0  0  0  0
   15.5470   -7.2070  -30.5790 C   0  0  2  0  0  0  0  0  0  0  0  0
   15.3600   -8.0850  -29.3770 C   0  0  2  0  0  0  0  0  0  0  0  0
   14.6540   -7.1010  -22.8590 C   0  0  2  0  0  0  0  0  0  0  0  0
   16.6140   -4.7940  -26.2770 C   0  0  2  0  0  0  0  0  0  0  0  0
   16.7450   -6.3100  -26.1060 C   0  0  2  0  0  0  0  0  0  0  0  0
   14.2630   -4.4640  -24.0500 O   0  0  0  0  0  0  0  0  0  0  0  0
   16.0890   -4.1760  -22.8440 O   0  0  0  0  0  0  0  0  0  0  0  0
   17.3620   -4.6920  -29.4610 H   0  0  0  0  0  0  0  0  0  0  0  0
   17.8000   -5.7680  -30.4450 H   0  0  0  0  0  0  0  0  0  0  0  0
   15.1100   -5.0070  -28.3120 H   0  0  0  0  0  0  0  0  0  0  0  0
   13.9910   -5.7210  -29.0740 H   0  0  0  0  0  0  0  0  0  0  0  0
   15.2870   -8.3970  -32.1780 H   0  0  0  0  0  0  0  0  0  0  0  0
   15.8990   -7.0420  -32.5510 H   0  0  0  0  0  0  0  0  0  0  0  0
   18.8340   -6.2560  -25.9630 H   0  0  0  0  0  0  0  0  0  0  0  0
   18.2720   -7.5900  -25.4610 H   0  0  0  0  0  0  0  0  0  0  0  0
   19.0510   -6.3470  -23.6180 H   0  0  0  0  0  0  0  0  0  0  0  0
   18.1720   -5.1560  -23.9870 H   0  0  0  0  0  0  0  0  0  0  0  0
   17.1860   -7.6390  -23.0160 H   0  0  0  0  0  0  0  0  0  0  0  0
   17.1440   -6.3330  -22.2310 H   0  0  0  0  0  0  0  0  0  0  0  0
   15.8500   -7.8590  -25.0950 H   0  0  0  0  0  0  0  0  0  0  0  0
   13.5930   -7.1150  -25.2700 H   0  0  0  0  0  0  0  0  0  0  0  0
   14.0740   -5.8620  -26.0120 H   0  0  0  0  0  0  0  0  0  0  0  0
   13.3670   -7.4650  -27.5500 H   0  0  0  0  0  0  0  0  0  0  0  0
   14.3290   -8.5000  -26.9840 H   0  0  0  0  0  0  0  0  0  0  0  0
   16.9470   -7.9500  -27.2700 H   0  0  0  0  0  0  0  0  0  0  0  0
   18.2140   -7.2470  -28.8670 H   0  0  0  0  0  0  0  0  0  0  0  0
   18.3930   -6.0150  -28.0190 H   0  0  0  0  0  0  0  0  0  0  0  0
   15.5450   -5.1610  -30.7550 H   0  0  0  0  0  0  0  0  0  0  0  0
   14.5580   -8.6250  -29.4630 H   0  0  0  0  0  0  0  0  0  0  0  0
   16.0770   -8.7350  -29.3070 H   0  0  0  0  0  0  0  0  0  0  0  0
   13.7490   -6.8470  -23.0970 H   0  0  0  0  0  0  0  0  0  0  0  0
   14.7700   -6.9030  -21.9160 H   0  0  0  0  0  0  0  0  0  0  0  0
   14.7180   -8.0630  -22.9600 H   0  0  0  0  0  0  0  0  0  0  0  0
   15.6920   -4.5020  -26.2060 H   0  0  0  0  0  0  0  0  0  0  0  0
   16.9400   -4.5000  -27.1420 H   0  0  0  0  0  0  0  0  0  0  0  0
   17.1180   -4.3110  -25.6040 H   0  0  0  0  0  0  0  0  0  0  0  0
  3  1  1  0
  7  6  1  0
  8  7  1  0
  9  5  1  6
  9  8  1  0
 10  9  1  0
 11 10  1  0
 12  1  1  0
 12 11  1  0
  1 13  1  1
 14 13  1  0
 14  2  1  0
 15  3  1  0
 15  2  1  0
 16 15  1  0
 16  4  1  1
 17 16  1  0
 17  1  1  0
 18  9  1  0
 20 10  1  0
 20 13  1  6
 20  6  1  0
 20 19  1  0
 21  5  1  0
 22  5  1  0
  2 23  1  1
 24  2  1  0
  3 25  1  1
 26  3  1  0
 27  4  1  0
 28  4  1  0
  6 29  1  6
 30  6  1  0
  7 31  1  1
 32  7  1  0
  8 33  1  1
 34  8  1  0
 10 35  1  1
 11 36  1  1
 37 11  1  0
 12 38  1  6
 39 12  1  0
 13 40  1  1
 14 41  1  6
 42 14  1  0
 15 43  1  6
 17 44  1  6
 45 17  1  0
 18 46  1  6
 47 18  1  0
 48 18  1  0
 19 49  1  6
 50 19  1  0
 51 19  1  0
M  END
$$$$
