
     RDKit          3D

 22 22  0  0  0  0  0  0  0  0999 V2000
   18.5520   58.2950   28.7980 C   0  0  2  0  0  0  0  0  0  0  0  0
   20.0660   58.3350   28.2260 C   0  0  0  0  0  0  0  0  0  0  0  0
   21.2200   57.7410   29.1560 C   0  0  0  0  0  0  0  0  0  0  0  0
   21.1020   58.1940   30.6440 C   0  0  0  0  0  0  0  0  0  0  0  0
   19.6730   58.1430   31.2910 C   0  0  0  0  0  0  0  0  0  0  0  0
   18.4160   58.1880   30.4730 C   0  0  0  0  0  0  0  0  0  0  0  0
   17.0550   58.1530   30.9920 C   0  0  0  0  0  0  0  0  0  0  0  0
   16.3070   58.9730   31.7890 C   0  0  0  0  0  0  0  0  0  0  0  0
   15.1870   58.7320   32.6340 C   0  0  0  0  0  0  0  0  0  0  0  0
   14.6580   59.7860   33.4310 C   0  0  0  0  0  0  0  0  0  0  0  0
   15.1740   61.0870   33.4530 C   0  0  0  0  0  0  0  0  0  0  0  0
   14.6200   62.0680   34.2230 C   0  0  0  0  0  0  0  0  0  0  0  0
   15.0600   63.4070   34.3050 C   0  0  0  0  0  0  0  0  0  0  0  0
   14.2940   64.1950   35.1510 C   0  0  0  0  0  0  0  0  0  0  0  0
   14.4350   65.6940   35.4850 C   0  0  0  0  0  0  0  0  0  0  0  0
   17.9030   56.9400   28.1910 C   0  0  0  0  0  0  0  0  0  0  0  0
   17.7870   59.4240   28.1250 C   0  0  0  0  0  0  0  0  0  0  0  0
   19.7510   58.0530   32.8060 C   0  0  0  0  0  0  0  0  0  0  0  0
   14.4700   57.3750   32.7550 C   0  0  0  0  0  0  0  0  0  0  0  0
   16.2870   63.9920   33.5060 C   0  0  0  0  0  0  0  0  0  0  0  0
   13.5160   66.4520   35.1630 O   0  0  0  0  0  0  0  0  0  0  0  0
   15.4730   66.1280   36.0470 O   0  0  0  0  0  0  0  0  0  0  0  0
  2  1  1  0
  3  2  1  0
  4  3  1  0
  5  4  1  0
  6  5  1  0
  6  1  1  0
  7  6  1  0
  8  7  1  0
  9  8  1  0
 10  9  1  0
 11 10  1  0
 12 11  1  0
 13 12  1  0
 14 13  1  0
 15 14  1  0
  1 16  1  6
 17  1  1  0
 18  5  1  0
 19  9  1  0
 20 13  1  0
 21 15  1  0
 22 15  1  0
M  END
$$$$
