
     RDKit          3D

 31 34  0  0  0  0  0  0  0  0999 V2000
   46.8570   13.3560  -24.1740 C   0  0  0  0  0  0  0  0  0  0  0  0
   46.2940   14.1380  -25.3610 C   0  0  0  0  0  0  0  0  0  0  0  0
   46.3110   13.2750  -26.6240 C   0  0  2  0  0  0  0  0  0  0  0  0
   46.1370   13.8540  -27.8790 C   0  0  0  0  0  0  0  0  0  0  0  0
   46.0240   15.3760  -27.9910 C   0  0  0  0  0  0  0  0  0  0  0  0
   46.0760   13.0830  -29.0340 C   0  0  0  0  0  0  0  0  0  0  0  0
   45.9280   13.6760  -30.2500 O   0  0  0  0  0  0  0  0  0  0  0  0
   46.1890   11.7000  -28.9460 C   0  0  0  0  0  0  0  0  0  0  0  0
   46.1260   10.8430  -30.2130 C   0  0  0  0  0  0  0  0  0  0  0  0
   46.3680   11.1090  -27.7030 C   0  0  0  0  0  0  0  0  0  0  0  0
   46.4890    9.5880  -27.5870 C   0  0  0  0  0  0  0  0  0  0  0  0
   46.4360   11.8910  -26.5520 C   0  0  1  0  0  0  0  0  0  0  0  0
   46.7460   11.2630  -25.3840 O   0  0  0  0  0  0  0  0  0  0  0  0
   46.3060   11.9290  -24.1960 C   0  0  2  0  0  0  0  0  0  0  0  0
   44.7760   11.9480  -24.1790 C   0  0  0  0  0  0  0  0  0  0  0  0
   46.7820   11.1650  -22.9670 C   0  0  0  0  0  0  0  0  0  0  0  0
   48.1730   11.2880  -22.6200 O   0  0  0  0  0  0  0  0  0  0  0  0
   49.0240   10.8360  -23.5820 C   0  0  0  0  0  0  0  0  0  0  0  0
   49.3340    9.4880  -23.6910 C   0  0  0  0  0  0  0  0  0  0  0  0
   50.1770    9.0370  -24.7010 C   0  0  0  0  0  0  0  0  0  0  0  0
   49.5690   11.7430  -24.4880 C   0  0  0  0  0  0  0  0  0  0  0  0
   50.4120   11.2930  -25.4970 C   0  0  0  0  0  0  0  0  0  0  0  0
   50.7140    9.9450  -25.6130 C   0  0  0  0  0  0  0  0  0  0  0  0
   51.5910    9.4880  -26.7810 C   0  0  0  0  0  0  0  0  0  0  0  0
   51.2990    8.0590  -27.2460 C   0  0  1  0  0  0  0  0  0  0  0  0
   49.5640    7.7650  -27.7310 S   0  0  0  0  0  0  0  0  0  0  0  0
   49.9820    7.2060  -29.3310 C   0  0  0  0  0  0  0  0  0  0  0  0
   49.1700    6.7470  -30.1350 O   0  0  0  0  0  0  0  0  0  0  0  0
   51.2900    7.3080  -29.5660 N   0  0  0  0  0  0  0  0  0  0  0  0
   52.0310    7.7890  -28.5640 C   0  0  2  0  0  0  0  0  0  0  0  0
   53.2480    7.9410  -28.6750 O   0  0  0  0  0  0  0  0  0  0  0  0
  2  1  1  0
  3  2  1  1
  4  3  1  0
  5  4  1  0
  6  4  1  0
  7  6  1  0
  8  6  1  0
  9  8  1  0
 10  8  1  0
 11 10  1  0
 12 10  1  0
 12  3  1  0
 12 13  1  6
 14 13  1  0
 14  1  1  0
 14 15  1  6
 16 14  1  0
 17 16  1  0
 18 17  1  0
 19 18  1  0
 20 19  1  0
 21 18  1  0
 22 21  1  0
 23 20  1  0
 23 22  1  0
 24 23  1  0
 25 24  1  6
 26 25  1  0
 27 26  1  0
 28 27  1  0
 29 27  1  0
 30 29  1  0
 30 25  1  0
 30 31  1  1
M  END
$$$$
