
     RDKit          3D

 22 23  0  0  0  0  0  0  0  0999 V2000
   47.3960   84.1890  130.0410 N   0  0  0  0  0  0  0  0  0  0  0  0
   47.7250   84.2190  128.6040 C   0  0  2  0  0  0  0  0  0  0  0  0
   48.3400   85.5830  128.2300 C   0  0  0  0  0  0  0  0  0  0  0  0
   48.9920   85.7080  127.1960 O   0  0  0  0  0  0  0  0  0  0  0  0
   46.4780   83.9260  127.7450 C   0  0  2  0  0  0  0  0  0  0  0  0
   46.8740   83.6950  126.2830 C   0  0  0  0  0  0  0  0  0  0  0  0
   45.4850   85.0860  127.8210 C   0  0  0  0  0  0  0  0  0  0  0  0
   43.1430   89.6040  129.3520 C   0  0  0  0  0  0  0  0  0  0  0  0
   42.4720   89.2530  128.1850 C   0  0  0  0  0  0  0  0  0  0  0  0
   43.2050   88.7660  127.1060 C   0  0  0  0  0  0  0  0  0  0  0  0
   44.5300   88.6520  127.2010 C   0  0  0  0  0  0  0  0  0  0  0  0
   45.1770   88.9940  128.3240 C   0  0  0  0  0  0  0  0  0  0  0  0
   44.5260   89.4620  129.3890 C   0  0  0  0  0  0  0  0  0  0  0  0
   46.6390   88.2930  126.8810 C   0  0  0  0  0  0  0  0  0  0  0  0
   46.4680   88.7710  128.1070 C   0  0  0  0  0  0  0  0  0  0  0  0
   47.5980   89.0090  129.1150 C   0  0  0  0  0  0  0  0  0  0  0  0
   48.6900   87.9440  128.8910 C   0  0  1  0  0  0  0  0  0  0  0  0
   49.9090   88.2030  129.8060 C   0  0  0  0  0  0  0  0  0  0  0  0
   48.6030   83.9120  130.8380 C   0  0  0  0  0  0  0  0  0  0  0  0
   45.4320   88.2190  126.3190 N   0  0  0  0  0  0  0  0  0  0  0  0
   48.1480   86.5850  129.1110 N   0  0  0  0  0  0  0  0  0  0  0  0
   49.6060   87.9740  131.1930 O   0  0  0  0  0  0  0  0  0  0  0  0
  2  1  1  1
  3  2  1  0
  4  3  1  0
  5  2  1  0
  5  6  1  6
  7  5  1  0
  9  8  1  0
 10  9  1  0
 11 10  1  0
 12 11  1  0
 13  8  1  0
 13 12  1  0
 15 14  1  0
 15 12  1  0
 16 15  1  0
 17 16  1  1
 18 17  1  0
 19  1  1  0
 20 14  1  0
 20 11  1  0
 21  3  1  0
 21 17  1  0
 22 18  1  0
M  END
$$$$
