
     RDKit          3D

 25 28  0  0  0  0  0  0  0  0999 V2000
   -2.8990   27.4250    5.9000 C   0  0  0  0  0  0  0  0  0  0  0  0
   -3.2020   28.1540    7.0430 C   0  0  0  0  0  0  0  0  0  0  0  0
   -2.2170   28.7360    7.8170 C   0  0  0  0  0  0  0  0  0  0  0  0
   -0.9170   28.5750    7.4350 C   0  0  0  0  0  0  0  0  0  0  0  0
   -0.5460   27.8740    6.3180 C   0  0  0  0  0  0  0  0  0  0  0  0
   -1.5530   27.3190    5.5740 C   0  0  0  0  0  0  0  0  0  0  0  0
   -1.2100   26.6500    4.4490 F   0  0  0  0  0  0  0  0  0  0  0  0
   -3.7580   25.2690    4.8940 C   0  0  0  0  0  0  0  0  0  0  0  0
   -4.6500   24.6820    3.9390 O   0  0  0  0  0  0  0  0  0  0  0  0
   -4.5530   25.3020    2.6820 C   0  0  2  0  0  0  0  0  0  0  0  0
   -5.1340   26.7000    2.7910 C   0  0  0  0  0  0  0  0  0  0  0  0
   -5.3610   24.4370    1.7700 C   0  0  0  0  0  0  0  0  0  0  0  0
    0.0610   29.1310    8.2010 F   0  0  0  0  0  0  0  0  0  0  0  0
   -4.0580   26.7920    5.1020 C   0  0  2  0  0  0  0  0  0  0  0  0
   -4.2350   27.5170    3.7280 C   0  0  2  0  0  0  0  0  0  0  0  0
   -4.7490   28.9430    3.9180 C   0  0  0  0  0  0  0  0  0  0  0  0
   -6.3190   29.0970    4.8000 S   0  0  0  0  0  0  0  0  0  0  0  0
   -6.2410   27.6370    5.8480 C   0  0  0  0  0  0  0  0  0  0  0  0
   -5.2890   26.7440    5.9160 N   0  0  0  0  0  0  0  0  0  0  0  0
   -7.3250   27.5220    6.6220 N   0  0  0  0  0  0  0  0  0  0  0  0
   -5.4870   23.0140    1.8320 C   0  0  0  0  0  0  0  0  0  0  0  0
   -6.2980   22.5760    0.8850 N   0  0  0  0  0  0  0  0  0  0  0  0
   -6.7020   23.7110    0.1940 N   0  0  0  0  0  0  0  0  0  0  0  0
   -6.1650   24.8300    0.6910 C   0  0  0  0  0  0  0  0  0  0  0  0
   -7.6110   23.5810   -0.9360 C   0  0  0  0  0  0  0  0  0  0  0  0
  2  1  1  0
  3  2  1  0
  4  3  1  0
  5  4  1  0
  6  5  1  0
  6  1  1  0
  7  6  1  0
  9  8  1  0
 10  9  1  0
 11 10  1  0
 10 12  1  6
 13  4  1  0
 14  8  1  0
 14  1  1  1
 15 14  1  0
 15 11  1  6
 16 15  1  0
 17 16  1  0
 18 17  1  0
 19 18  1  0
 19 14  1  0
 20 18  1  0
 21 12  1  0
 22 21  1  0
 23 22  1  0
 24 23  1  0
 24 12  1  0
 25 23  1  0
M  END
$$$$
