
     RDKit          3D

 11 12  0  0  0  0  0  0  0  0999 V2000
   57.1610   78.1330   60.7100 C   0  0  0  0  0  0  0  0  0  0  0  0
   56.2810   76.9860   60.8180 C   0  0  0  0  0  0  0  0  0  0  0  0
   55.0140   77.0290   60.3490 C   0  0  0  0  0  0  0  0  0  0  0  0
   54.4690   78.2240   59.7180 C   0  0  0  0  0  0  0  0  0  0  0  0
   53.1500   78.3250   59.2020 C   0  0  0  0  0  0  0  0  0  0  0  0
   52.7030   79.4910   58.6090 C   0  0  0  0  0  0  0  0  0  0  0  0
   53.5820   80.6170   58.5110 C   0  0  0  0  0  0  0  0  0  0  0  0
   54.8960   80.5470   59.0200 C   0  0  0  0  0  0  0  0  0  0  0  0
   55.3280   79.3440   59.6190 C   0  0  0  0  0  0  0  0  0  0  0  0
   58.3050   78.1680   61.0960 O   0  0  0  0  0  0  0  0  0  0  0  0
   56.6500   79.2920   60.1100 O   0  0  0  0  0  0  0  0  0  0  0  0
  2  1  1  0
  3  2  1  0
  4  3  1  0
  5  4  1  0
  6  5  1  0
  7  6  1  0
  8  7  1  0
  9  4  1  0
  9  8  1  0
 10  1  1  0
 11  9  1  0
 11  1  1  0
M  END
$$$$
