
     RDKit          3D

 30 33  0  0  0  0  0  0  0  0999 V2000
   26.2020    6.2390   28.5780 Cl  0  0  0  0  0  0  0  0  0  0  0  0
   25.9380    7.5920   29.6740 C   0  0  2  0  0  0  0  0  0  0  0  0
   24.8040    8.6660   29.5530 C   0  0  2  0  0  0  0  0  0  0  0  0
   23.7750    8.8530   28.4380 C   0  0  0  0  0  0  0  0  0  0  0  0
   24.1930    9.7470   27.4140 O   0  0  0  0  0  0  0  0  0  0  0  0
   26.9350    8.0100   30.6390 N   0  0  0  0  0  0  0  0  0  0  0  0
   26.3730    9.1550   31.2950 C   0  0  1  0  0  0  0  0  0  0  0  0
   27.1620    9.8680   32.3820 C   0  0  0  0  0  0  0  0  0  0  0  0
   27.7700    8.8690   33.3790 C   0  0  0  0  0  0  0  0  0  0  0  0
   26.8910    7.6670   33.7410 C   0  0  0  0  0  0  0  0  0  0  0  0
   27.1280    7.1930   35.1510 C   0  0  0  0  0  0  0  0  0  0  0  0
   25.2700    9.6530   30.4660 N   0  0  0  0  0  0  0  0  0  0  0  0
   24.4780   10.7990   30.6640 C   0  0  0  0  0  0  0  0  0  0  0  0
   25.0710   11.7790   29.6640 C   0  0  2  0  0  0  0  0  0  0  0  0
   26.5790   11.9810   29.4880 C   0  0  0  0  0  0  0  0  0  0  0  0
   27.0310   13.1740   28.6250 C   0  0  0  0  0  0  0  0  0  0  0  0
   24.0330   12.8050   29.3400 C   0  0  0  0  0  0  0  0  0  0  0  0
   24.4770   13.9410   28.4930 C   0  0  0  0  0  0  0  0  0  0  0  0
   25.9100   14.0510   28.0180 C   0  0  1  0  0  0  0  0  0  0  0  0
   26.2380   15.3520   27.2840 C   0  0  1  0  0  0  0  0  0  0  0  0
   25.5970   16.5740   27.8550 C   0  0  0  0  0  0  0  0  0  0  0  0
   25.9790   17.9020   27.2650 C   0  0  0  0  0  0  0  0  0  0  0  0
   27.1200   18.0000   26.2800 C   0  0  0  0  0  0  0  0  0  0  0  0
   27.8750   16.7750   25.8120 C   0  0  0  0  0  0  0  0  0  0  0  0
   27.5420   15.4790   26.5250 C   0  0  2  0  0  0  0  0  0  0  0  0
   28.1850   14.2180   25.9650 C   0  0  2  0  0  0  0  0  0  0  0  0
   27.4470   13.1980   25.2420 N   0  0  0  0  0  0  0  0  0  0  0  0
   29.5100   13.7930   26.3610 N   0  0  0  0  0  0  0  0  0  0  0  0
   29.5130   12.6310   25.7290 N   0  0  0  0  0  0  0  0  0  0  0  0
   28.3730   12.2810   25.0980 N   0  0  0  0  0  0  0  0  0  0  0  0
  2  1  1  6
  3  2  1  0
  3  4  1  6
  5  4  1  0
  6  2  1  0
  7  6  1  0
  7  8  1  6
  9  8  1  0
 10  9  1  0
 11 10  1  0
 12  7  1  0
 12  3  1  0
 13 12  1  0
 14 13  1  1
 15 14  1  0
 16 15  1  0
 17 14  1  0
 18 17  1  0
 19 18  1  1
 19 16  1  0
 20 19  1  0
 20 21  1  1
 22 21  1  0
 23 22  1  0
 24 23  1  0
 25 20  1  0
 25 24  1  6
 26 25  1  0
 26 27  1  1
 28 26  1  0
 29 28  1  0
 30 29  1  0
 30 27  1  0
M  END
$$$$
