
     RDKit          3D

  8  8  0  0  0  0  0  0  0  0999 V2000
   24.7300    0.0010   12.4370 C   0  0  0  0  0  0  0  0  0  0  0  0
   24.0380   -1.0090   13.1430 C   0  0  0  0  0  0  0  0  0  0  0  0
   24.7870   -1.9050   13.8790 C   0  0  0  0  0  0  0  0  0  0  0  0
   26.1620   -1.8240   13.9240 C   0  0  0  0  0  0  0  0  0  0  0  0
   26.8560   -0.8520   13.2410 C   0  0  0  0  0  0  0  0  0  0  0  0
   26.1630    0.0560   12.4350 C   0  0  2  0  0  0  0  0  0  0  0  0
   26.8210    1.0990   11.7300 C   0  0  0  0  0  0  0  0  0  0  0  0
   28.3240    1.3130   11.8570 C   0  0  0  0  0  0  0  0  0  0  0  0
  2  1  1  0
  3  2  1  0
  4  3  1  0
  5  4  1  0
  6  5  1  0
  6  1  1  0
  6  7  1  1
  8  7  1  0
M  END
$$$$
