
     RDKit          3D

 17 18  0  0  0  0  0  0  0  0999 V2000
   16.6010   -0.6550   24.9790 N   0  0  0  0  0  0  0  0  0  0  0  0
   16.0730   -1.4290   25.9800 C   0  0  0  0  0  0  0  0  0  0  0  0
   15.3420   -0.8440   27.0080 C   0  0  0  0  0  0  0  0  0  0  0  0
   15.1490    0.5060   27.0160 C   0  0  0  0  0  0  0  0  0  0  0  0
   15.6790    1.2840   26.0170 C   0  0  0  0  0  0  0  0  0  0  0  0
   16.4110    0.6930   24.9930 C   0  0  0  0  0  0  0  0  0  0  0  0
   14.7480   -1.7630   28.1340 C   0  0  0  0  0  0  0  0  0  0  0  0
   15.4500   -2.6870   28.5640 O   0  0  0  0  0  0  0  0  0  0  0  0
   13.0110   -2.8460   29.5260 C   0  0  0  0  0  0  0  0  0  0  0  0
   13.3200   -1.5890   28.7310 C   0  0  1  0  0  0  0  0  0  0  0  0
   13.2590   -0.4290   29.6660 C   0  0  0  0  0  0  0  0  0  0  0  0
   12.2190   -1.4280   27.6280 C   0  0  0  0  0  0  0  0  0  0  0  0
   10.9750   -0.9170   27.9880 C   0  0  0  0  0  0  0  0  0  0  0  0
   10.0000   -0.7730   27.0480 N   0  0  0  0  0  0  0  0  0  0  0  0
   10.2380   -1.1390   25.7370 C   0  0  0  0  0  0  0  0  0  0  0  0
   11.4720   -1.6430   25.3730 C   0  0  0  0  0  0  0  0  0  0  0  0
   12.4520   -1.7940   26.3220 C   0  0  0  0  0  0  0  0  0  0  0  0
  2  1  1  0
  3  2  1  0
  4  3  1  0
  5  4  1  0
  6  5  1  0
  6  1  1  0
  7  3  1  0
  8  7  1  0
 10  9  1  1
 10  7  1  0
 11 10  1  0
 12 10  1  0
 13 12  1  0
 14 13  1  0
 15 14  1  0
 16 15  1  0
 17 16  1  0
 17 12  1  0
M  END
$$$$
