
     RDKit          3D

  7  7  0  0  0  0  0  0  0  0999 V2000
   12.3540   16.3540  -11.6180 C   0  0  2  0  0  0  0  0  0  0  0  0
   11.6820   17.1430  -12.7220 C   0  0  0  0  0  0  0  0  0  0  0  0
   12.7210   17.7940  -13.6270 C   0  0  0  0  0  0  0  0  0  0  0  0
   13.6630   18.6590  -12.8230 C   0  0  0  0  0  0  0  0  0  0  0  0
   14.4050   17.8130  -11.8170 C   0  0  0  0  0  0  0  0  0  0  0  0
   13.4340   17.1170  -10.8690 C   0  0  0  0  0  0  0  0  0  0  0  0
   12.9540   15.1440  -12.2080 N   0  0  0  0  0  0  0  0  0  0  0  0
  2  1  1  0
  3  2  1  0
  4  3  1  0
  5  4  1  0
  6  5  1  0
  6  1  1  0
  1  7  1  6
M  END
$$$$
