
     RDKit          3D

  9  9  0  0  0  0  0  0  0  0999 V2000
   26.8450    0.6230   15.2530 C   0  0  0  0  0  0  0  0  0  0  0  0
   23.0150   -1.1620   12.4240 C   0  0  0  0  0  0  0  0  0  0  0  0
   23.3420    0.1500   12.8120 C   0  0  0  0  0  0  0  0  0  0  0  0
   23.6210   -2.2470   13.0640 C   0  0  0  0  0  0  0  0  0  0  0  0
   24.2250    0.3900   13.8490 C   0  0  0  0  0  0  0  0  0  0  0  0
   24.5210   -1.9890   14.1100 C   0  0  0  0  0  0  0  0  0  0  0  0
   25.0810   -0.0290   16.7950 N   0  0  0  0  0  0  0  0  0  0  0  0
   24.8250   -0.6920   14.5050 C   0  0  0  0  0  0  0  0  0  0  0  0
   25.7980   -0.4560   15.5920 C   0  0  1  0  0  0  0  0  0  0  0  0
  3  2  1  0
  4  2  1  0
  5  3  1  0
  6  4  1  0
  8  6  1  0
  8  5  1  0
  9  8  1  0
  9  1  1  6
  9  7  1  0
M  END
$$$$
