
     RDKit          3D

  9  9  0  0  0  0  0  0  0  0999 V2000
    4.6330   15.0060   11.5350 N   0  0  0  0  0  0  0  0  0  0  0  0
    4.8440   16.4230   11.2090 C   0  0  1  0  0  0  0  0  0  0  0  0
    3.6070   16.9710   10.5380 C   0  0  0  0  0  0  0  0  0  0  0  0
    5.3230   17.1720   12.4220 C   0  0  1  0  0  0  0  0  0  0  0  0
    6.5850   16.7820   12.9170 C   0  0  0  0  0  0  0  0  0  0  0  0
    7.1280   17.4030   14.0220 C   0  0  0  0  0  0  0  0  0  0  0  0
    6.4880   18.5020   14.5980 C   0  0  0  0  0  0  0  0  0  0  0  0
    5.2570   18.9250   14.1010 C   0  0  0  0  0  0  0  0  0  0  0  0
    4.6900   18.2650   13.0210 C   0  0  0  0  0  0  0  0  0  0  0  0
  2  1  1  0
  2  3  1  1
  4  2  1  0
  4  5  1  6
  6  5  1  0
  7  6  1  0
  8  7  1  0
  9  8  1  0
  9  4  1  0
M  END
$$$$
