
     RDKit          3D

 20 20  0  0  0  0  0  0  0  0999 V2000
   -3.6990  -23.6360    5.7460 O   0  0  0  0  0  0  0  0  0  0  0  0
   -2.7050  -23.2750    6.3440 C   0  0  0  0  0  0  0  0  0  0  0  0
   -1.6670  -24.1340    6.5400 N   0  0  0  0  0  0  0  0  0  0  0  0
   -1.7410  -25.4900    6.0520 C   0  0  1  0  0  0  0  0  0  0  0  0
   -1.4770  -25.7340    4.5570 C   0  0  0  0  0  0  0  0  0  0  0  0
   -1.0100  -27.1920    4.5940 C   0  0  0  0  0  0  0  0  0  0  0  0
   -0.2620  -27.2760    5.8120 O   0  0  0  0  0  0  0  0  0  0  0  0
   -0.6650  -26.3640    6.7100 C   0  0  0  0  0  0  0  0  0  0  0  0
   -0.2510  -26.2650    7.8390 O   0  0  0  0  0  0  0  0  0  0  0  0
   -2.4990  -21.9080    6.9430 C   0  0  0  0  0  0  0  0  0  0  0  0
   -3.5320  -21.7370    8.0450 C   0  0  0  0  0  0  0  0  0  0  0  0
   -3.3200  -20.4470    8.8570 C   0  0  0  0  0  0  0  0  0  0  0  0
   -4.3460  -20.3870    9.9530 C   0  0  0  0  0  0  0  0  0  0  0  0
   -3.9940  -19.5730   11.1660 C   0  0  0  0  0  0  0  0  0  0  0  0
   -5.1870  -19.6460   12.1120 C   0  0  0  0  0  0  0  0  0  0  0  0
   -4.8450  -19.1360   13.5060 C   0  0  0  0  0  0  0  0  0  0  0  0
   -6.0270  -18.4520   14.1870 C   0  0  0  0  0  0  0  0  0  0  0  0
   -7.3190  -19.2540   14.1060 C   0  0  0  0  0  0  0  0  0  0  0  0
   -8.5260  -18.4140   14.4910 C   0  0  0  0  0  0  0  0  0  0  0  0
   -9.2930  -19.0170   15.6400 C   0  0  0  0  0  0  0  0  0  0  0  0
  2  1  1  0
  3  2  1  0
  4  3  1  6
  5  4  1  0
  6  5  1  0
  7  6  1  0
  8  7  1  0
  8  4  1  0
  9  8  1  0
 10  2  1  0
 11 10  1  0
 12 11  1  0
 13 12  1  0
 14 13  1  0
 15 14  1  0
 16 15  1  0
 17 16  1  0
 18 17  1  0
 19 18  1  0
 20 19  1  0
M  END
$$$$
