
     RDKit          3D

 29 29  0  0  0  0  0  0  0  0999 V2000
   -4.5510  -28.4780    5.1070 O   0  0  0  0  0  0  0  0  0  0  0  0
   -4.3180  -28.6250    3.8660 C   0  0  0  0  0  0  0  0  0  0  0  0
   -5.2390  -28.8160    3.0610 O   0  0  0  0  0  0  0  0  0  0  0  0
   -2.9160  -28.6010    3.2820 C   0  0  2  0  0  0  0  0  0  0  0  0
   -2.6430  -29.7330    2.2600 C   0  0  0  0  0  0  0  0  0  0  0  0
   -3.1130  -31.1260    2.5610 C   0  0  0  0  0  0  0  0  0  0  0  0
   -3.2280  -31.6030    3.8270 C   0  0  0  0  0  0  0  0  0  0  0  0
   -3.6770  -32.8820    4.0850 C   0  0  0  0  0  0  0  0  0  0  0  0
   -3.9880  -33.7120    3.0420 C   0  0  0  0  0  0  0  0  0  0  0  0
   -3.8330  -33.2480    1.7260 C   0  0  0  0  0  0  0  0  0  0  0  0
   -3.3970  -31.9460    1.4890 C   0  0  0  0  0  0  0  0  0  0  0  0
   -1.8220  -28.5720    4.2440 N   0  0  0  0  0  0  0  0  0  0  0  0
   -0.7190  -27.8300    4.0680 C   0  0  1  0  0  0  0  0  0  0  0  0
   -0.4190  -27.2330    3.0200 O   0  0  0  0  0  0  0  0  0  0  0  0
    0.1670  -27.6540    5.2860 C   0  0  0  0  0  0  0  0  0  0  0  0
   -0.5620  -26.7030    6.2430 C   0  0  0  0  0  0  0  0  0  0  0  0
   -0.3550  -25.2050    6.0060 C   0  0  0  0  0  0  0  0  0  0  0  0
   -0.8860  -24.4560    7.2430 C   0  0  0  0  0  0  0  0  0  0  0  0
   -1.2290  -22.9790    7.0580 C   0  0  0  0  0  0  0  0  0  0  0  0
   -2.1650  -22.4790    8.1100 C   0  0  0  0  0  0  0  0  0  0  0  0
   -1.6570  -21.1430    8.5990 C   0  0  0  0  0  0  0  0  0  0  0  0
   -2.4670  -20.3410    9.6440 C   0  0  0  0  0  0  0  0  0  0  0  0
   -3.6180  -21.0820   10.3020 C   0  0  0  0  0  0  0  0  0  0  0  0
   -3.6190  -21.1210   11.8430 C   0  0  0  0  0  0  0  0  0  0  0  0
   -4.3700  -19.9680   12.4810 C   0  0  0  0  0  0  0  0  0  0  0  0
   -5.3760  -20.4660   13.5040 C   0  0  0  0  0  0  0  0  0  0  0  0
   -6.2100  -19.2900   14.0030 C   0  0  0  0  0  0  0  0  0  0  0  0
   -7.4940  -19.8590   14.5580 C   0  0  0  0  0  0  0  0  0  0  0  0
   -8.5180  -18.7810   14.7990 C   0  0  0  0  0  0  0  0  0  0  0  0
  2  1  1  0
  3  2  1  0
  4  2  1  0
  4  5  1  1
  6  5  1  0
  7  6  1  0
  8  7  1  0
  9  8  1  0
 10  9  1  0
 11 10  1  0
 11  6  1  0
 12  4  1  0
 13 12  1  0
 13 14  1  1
 15 13  1  0
 16 15  1  0
 17 16  1  0
 18 17  1  0
 19 18  1  0
 20 19  1  0
 21 20  1  0
 22 21  1  0
 23 22  1  0
 24 23  1  0
 25 24  1  0
 26 25  1  0
 27 26  1  0
 28 27  1  0
 29 28  1  0
M  END
$$$$
