
     RDKit          3D

 12 13  0  0  0  0  0  0  0  0999 V2000
  -19.3510   -8.8950  -15.8620 O   0  0  0  0  0  0  0  0  0  0  0  0
  -20.6450   -9.0690  -15.3230 N   0  0  0  0  0  0  0  0  0  0  0  0
  -20.8300   -9.5520  -13.8910 O   0  0  0  0  0  0  0  0  0  0  0  0
  -21.6670   -9.1170  -16.1790 C   0  0  1  0  0  0  0  0  0  0  0  0
  -21.3240   -9.1200  -17.5110 C   0  0  0  0  0  0  0  0  0  0  0  0
  -22.2420   -9.2190  -18.4470 C   0  0  0  0  0  0  0  0  0  0  0  0
  -22.1060   -9.2180  -19.7710 C   0  0  0  0  0  0  0  0  0  0  0  0
  -23.3130   -9.3330  -20.3050 N   0  0  0  0  0  0  0  0  0  0  0  0
  -24.2130   -9.4060  -19.2820 O   0  0  0  0  0  0  0  0  0  0  0  0
  -23.5350   -9.3340  -18.1370 C   0  0  0  0  0  0  0  0  0  0  0  0
  -23.9510   -9.3590  -16.8680 C   0  0  0  0  0  0  0  0  0  0  0  0
  -23.0080   -9.2710  -15.8390 C   0  0  0  0  0  0  0  0  0  0  0  0
  2  1  1  0
  3  2  1  0
  4  2  1  1
  5  4  1  0
  6  5  1  0
  7  6  1  0
  8  7  1  0
  9  8  1  0
 10  9  1  0
 10  6  1  0
 11 10  1  0
 12 11  1  0
 12  4  1  0
M  END
$$$$
