
     RDKit          3D

 15 15  0  0  0  0  0  0  0  0999 V2000
   -2.8000   -2.8440   17.7830 C   0  0  2  0  0  0  0  0  0  0  0  0
   -3.6990   -1.8020   18.3750 C   0  0  0  0  0  0  0  0  0  0  0  0
   -4.8420   -2.2270   18.9100 C   0  0  0  0  0  0  0  0  0  0  0  0
   -5.6810   -1.3390   19.4730 C   0  0  0  0  0  0  0  0  0  0  0  0
   -5.3990   -0.0140   19.5090 C   0  0  0  0  0  0  0  0  0  0  0  0
   -4.2380    0.4350   18.9520 C   0  0  0  0  0  0  0  0  0  0  0  0
   -3.3610   -0.4590   18.3830 C   0  0  0  0  0  0  0  0  0  0  0  0
   -2.8310   -2.7860   16.8150 H   0  0  0  0  0  0  0  0  0  0  0  0
   -3.0960   -3.7240   18.0640 H   0  0  0  0  0  0  0  0  0  0  0  0
   -1.8900   -2.6970   18.0870 H   0  0  0  0  0  0  0  0  0  0  0  0
   -5.0530   -3.1330   18.9060 H   0  0  0  0  0  0  0  0  0  0  0  0
   -6.4780   -1.6420   19.8440 H   0  0  0  0  0  0  0  0  0  0  0  0
   -6.0000    0.5840   19.8920 H   0  0  0  0  0  0  0  0  0  0  0  0
   -4.0330    1.3420   18.9710 H   0  0  0  0  0  0  0  0  0  0  0  0
   -2.5620   -0.1680   18.0070 H   0  0  0  0  0  0  0  0  0  0  0  0
  2  1  1  0
  3  2  1  0
  4  3  1  0
  5  4  1  0
  6  5  1  0
  7  6  1  0
  7  2  1  0
  1  8  1  6
  9  1  1  0
 10  1  1  0
 11  3  1  0
 12  4  1  0
 13  5  1  0
 14  6  1  0
 15  7  1  0
M  END
$$$$
