
     RDKit          3D

 19 20  0  0  0  0  0  0  0  0999 V2000
  -19.5050  -25.8110  -19.5000 C   0  0  0  0  0  0  0  0  0  0  0  0
  -18.8970  -25.0270  -20.3260 C   0  0  0  0  0  0  0  0  0  0  0  0
  -20.1510  -25.2820  -18.4740 C   0  0  0  0  0  0  0  0  0  0  0  0
  -20.8910  -26.0550  -17.4120 C   0  0  1  0  0  0  0  0  0  0  0  0
  -21.5650  -24.9480  -16.7950 C   0  0  1  0  0  0  0  0  0  0  0  0
  -20.9110  -23.6230  -17.0220 C   0  0  2  0  0  0  0  0  0  0  0  0
  -20.1420  -23.9060  -18.2920 C   0  0  0  0  0  0  0  0  0  0  0  0
  -19.4820  -23.0970  -19.1610 C   0  0  1  0  0  0  0  0  0  0  0  0
  -18.8830  -23.6510  -20.2610 C   0  0  1  0  0  0  0  0  0  0  0  0
  -19.4850  -26.7040  -19.6610 H   0  0  0  0  0  0  0  0  0  0  0  0
  -18.5530  -25.5270  -20.9090 H   0  0  0  0  0  0  0  0  0  0  0  0
  -21.5220  -26.6800  -17.8030 H   0  0  0  0  0  0  0  0  0  0  0  0
  -20.2810  -26.4900  -16.7960 H   0  0  0  0  0  0  0  0  0  0  0  0
  -22.4170  -24.9300  -17.2470 H   0  0  0  0  0  0  0  0  0  0  0  0
  -21.6460  -25.1100  -15.8430 H   0  0  0  0  0  0  0  0  0  0  0  0
  -20.2960  -23.4260  -16.2990 H   0  0  0  0  0  0  0  0  0  0  0  0
  -21.5270  -22.9120  -17.2060 H   0  0  0  0  0  0  0  0  0  0  0  0
  -19.5000  -22.1740  -19.0490 H   0  0  0  0  0  0  0  0  0  0  0  0
  -18.4120  -23.1200  -20.8560 H   0  0  0  0  0  0  0  0  0  0  0  0
  2  1  1  0
  3  1  1  0
  4  3  1  0
  5  4  1  0
  6  5  1  0
  7  6  1  0
  7  3  1  0
  8  7  1  0
  9  8  1  0
  9  2  1  0
 10  1  1  0
 11  2  1  0
  4 12  1  6
 13  4  1  0
  5 14  1  6
 15  5  1  0
  6 16  1  1
 17  6  1  0
  8 18  1  6
  9 19  1  1
M  END
$$$$
