
     RDKit          3D

 30 32  0  0  0  0  0  0  0  0999 V2000
   52.0590  -47.7860   -3.9430 C   0  0  2  0  0  0  0  0  0  0  0  0
   53.1150  -46.6820   -4.1050 C   0  0  1  0  0  0  0  0  0  0  0  0
   52.6490  -45.2020   -4.1170 C   0  0  2  0  0  0  0  0  0  0  0  0
   51.5970  -45.0290   -3.1430 N   0  0  0  0  0  0  0  0  0  0  0  0
   51.1710  -43.8120   -2.6220 C   0  0  0  0  0  0  0  0  0  0  0  0
   50.1690  -44.0070   -1.7430 N   0  0  0  0  0  0  0  0  0  0  0  0
   49.9450  -45.3850   -1.7220 C   0  0  0  0  0  0  0  0  0  0  0  0
   50.8190  -46.0440   -2.5800 C   0  0  0  0  0  0  0  0  0  0  0  0
   50.9750  -47.4790   -2.8990 C   0  0  2  0  0  0  0  0  0  0  0  0
   52.1960  -44.7550   -5.5380 C   0  0  0  0  0  0  0  0  0  0  0  0
   53.0780  -44.6260   -6.6200 C   0  0  0  0  0  0  0  0  0  0  0  0
   52.6710  -44.2170   -7.9000 C   0  0  0  0  0  0  0  0  0  0  0  0
   51.3490  -43.8990   -8.1960 C   0  0  0  0  0  0  0  0  0  0  0  0
   50.4580  -44.0160   -7.1310 C   0  0  0  0  0  0  0  0  0  0  0  0
   50.8670  -44.4250   -5.8560 C   0  0  0  0  0  0  0  0  0  0  0  0
   50.8750  -43.4810   -9.4620 C   0  0  0  0  0  0  0  0  0  0  0  0
   50.4800  -43.1350  -10.5100 N   0  0  0  0  0  0  0  0  0  0  0  0
   52.5190  -48.6310   -3.8340 H   0  0  0  0  0  0  0  0  0  0  0  0
   51.6310  -47.9960   -4.7850 H   0  0  0  0  0  0  0  0  0  0  0  0
   53.7370  -46.7410   -3.3630 H   0  0  0  0  0  0  0  0  0  0  0  0
   53.6030  -46.8880   -4.9170 H   0  0  0  0  0  0  0  0  0  0  0  0
   53.4030  -44.6930   -3.7800 H   0  0  0  0  0  0  0  0  0  0  0  0
   51.5890  -43.0270   -2.8950 H   0  0  0  0  0  0  0  0  0  0  0  0
   49.3010  -45.7960   -1.1940 H   0  0  0  0  0  0  0  0  0  0  0  0
   51.0670  -47.9990   -2.0850 H   0  0  0  0  0  0  0  0  0  0  0  0
   50.1640  -47.9220   -3.1920 H   0  0  0  0  0  0  0  0  0  0  0  0
   53.9920  -44.7970   -6.6030 H   0  0  0  0  0  0  0  0  0  0  0  0
   53.3560  -44.1770   -8.5270 H   0  0  0  0  0  0  0  0  0  0  0  0
   49.5570  -43.8210   -7.2550 H   0  0  0  0  0  0  0  0  0  0  0  0
   50.1430  -44.4470   -5.2730 H   0  0  0  0  0  0  0  0  0  0  0  0
  2  1  1  0
  3  2  1  0
  4  3  1  0
  5  4  1  0
  6  5  1  0
  7  6  1  0
  8  7  1  0
  8  4  1  0
  9  8  1  0
  9  1  1  0
 10  3  1  0
 11 10  1  0
 12 11  1  0
 13 12  1  0
 14 13  1  0
 15 14  1  0
 15 10  1  0
 16 13  1  0
 17 16  1  0
  1 18  1  1
 19  1  1  0
  2 20  1  1
 21  2  1  0
  3 22  1  1
 23  5  1  0
 24  7  1  0
  9 25  1  1
 26  9  1  0
 27 11  1  0
 28 12  1  0
 29 14  1  0
 30 15  1  0
M  END
$$$$
