
     RDKit          3D

 19 20  0  0  0  0  0  0  0  0999 V2000
    7.1910    7.4470   14.5850 C   0  0  0  0  0  0  0  0  0  0  0  0
    5.9360    7.0260   15.0060 C   0  0  0  0  0  0  0  0  0  0  0  0
    5.1030    7.9700   16.1830 Cl  0  0  0  0  0  0  0  0  0  0  0  0
    5.3200    5.8590   14.5200 C   0  0  0  0  0  0  0  0  0  0  0  0
    6.0710    5.1560   13.5730 C   0  0  0  0  0  0  0  0  0  0  0  0
    5.4060    3.6950   12.9240 Cl  0  0  0  0  0  0  0  0  0  0  0  0
    7.3320    5.5460   13.1440 C   0  0  0  0  0  0  0  0  0  0  0  0
    7.8940    6.7050   13.6460 C   0  0  0  0  0  0  0  0  0  0  0  0
    4.0670    5.4380   14.9270 N   0  0  0  0  0  0  0  0  0  0  0  0
    1.7200    5.7090   15.4300 C   0  0  0  0  0  0  0  0  0  0  0  0
    2.8770    6.1610   14.7620 C   0  0  0  0  0  0  0  0  0  0  0  0
    2.7900    7.3130   13.9650 C   0  0  0  0  0  0  0  0  0  0  0  0
    1.6030    8.0220   13.8350 C   0  0  0  0  0  0  0  0  0  0  0  0
    0.4610    7.5750   14.4870 C   0  0  0  0  0  0  0  0  0  0  0  0
    0.5400    6.4350   15.2770 C   0  0  0  0  0  0  0  0  0  0  0  0
    1.7440    4.4920   16.3080 C   0  0  0  0  0  0  0  0  0  0  0  0
    1.7980    3.1480   15.5490 C   0  0  0  0  0  0  0  0  0  0  0  0
    2.4180    3.1540   14.4540 O   0  0  0  0  0  0  0  0  0  0  0  0
    1.2350    2.1660   16.0630 O   0  0  0  0  0  0  0  0  0  0  0  0
  2  1  1  0
  3  2  1  0
  4  2  1  0
  5  4  1  0
  6  5  1  0
  7  5  1  0
  8  7  1  0
  8  1  1  0
  9  4  1  0
 11  9  1  0
 11 10  1  0
 12 11  1  0
 13 12  1  0
 14 13  1  0
 15 14  1  0
 15 10  1  0
 16 10  1  0
 17 16  1  0
 18 17  1  0
 19 17  1  0
M  END
$$$$
