
     RDKit          3D

 10 12  0  0  0  0  0  0  0  0999 V2000
   42.4940  -14.4520  -22.2030 C   0  0  0  0  0  0  0  0  0  0  0  0
   43.3370  -15.4590  -22.6540 C   0  0  0  0  0  0  0  0  0  0  0  0
   42.8800  -16.2530  -23.6940 C   0  0  1  0  0  0  0  0  0  0  0  0
   41.4610  -16.7670  -23.6060 C   0  0  1  0  0  0  0  0  0  0  0  0
   41.0270  -15.2610  -23.8750 C   0  0  1  0  0  0  0  0  0  0  0  0
   41.2700  -14.3500  -22.8540 C   0  0  0  0  0  0  0  0  0  0  0  0
   42.2290  -15.5150  -24.9170 C   0  0  0  0  0  0  0  0  0  0  0  0
   41.7910  -16.5200  -26.0180 C   0  0  0  0  0  0  0  0  0  0  0  0
   43.1840  -14.4030  -25.4150 C   0  0  0  0  0  0  0  0  0  0  0  0
   44.5890  -15.6640  -22.0860 C   0  0  0  0  0  0  0  0  0  0  0  0
  2  1  1  0
  3  2  1  1
  4  3  1  0
  5  4  1  0
  5  6  1  1
  6  1  1  0
  4  7  1  6
  7  5  1  0
  7  3  1  0
  8  7  1  0
  9  7  1  0
 10  2  1  0
M  END
$$$$
