
     RDKit          3D

 11 12  0  0  0  0  0  0  0  0999 V2000
   33.8490  -14.2720   -9.5130 C   0  0  0  0  0  0  0  0  0  0  0  0
   34.0530  -14.5010  -11.0050 C   0  0  1  0  0  0  0  0  0  0  0  0
   35.4320  -15.0890  -11.2270 C   0  0  2  0  0  0  0  0  0  0  0  0
   33.5230  -15.8810  -11.3680 C   0  0  0  0  0  0  0  0  0  0  0  0
   36.4720  -14.5890  -10.2230 C   0  0  0  0  0  0  0  0  0  0  0  0
   35.8770  -15.0170  -12.6940 C   0  0  0  0  0  0  0  0  0  0  0  0
   35.1910  -17.6300   -8.7950 C   0  0  0  0  0  0  0  0  0  0  0  0
   34.2640  -15.3970   -8.7980 C   0  0  0  0  0  0  0  0  0  0  0  0
   36.0720  -17.1000   -7.1460 Br  0  0  0  0  0  0  0  0  0  0  0  0
   34.7700  -16.4970   -9.4820 C   0  0  0  0  0  0  0  0  0  0  0  0
   34.8450  -16.4370  -10.8620 C   0  0  2  0  0  0  0  0  0  0  0  0
  2  1  1  1
  3  2  1  0
  4  2  1  0
  3  5  1  1
  6  3  1  0
  8  1  1  0
  9  7  1  0
 10  7  1  0
 10  8  1  0
 11 10  1  0
 11  4  1  6
 11  3  1  0
M  END
$$$$
