
     RDKit          3D

 21 24  0  0  0  0  0  0  0  0999 V2000
    1.2540   -4.5560   -2.0700 C   0  0  0  0  0  0  0  0  0  0  0  0
    2.7100   -4.5880   -1.6320 C   0  0  0  0  0  0  0  0  0  0  0  0
    1.9130   -5.8790   -1.7120 C   0  0  2  0  0  0  0  0  0  0  0  0
    2.2370   -6.7390   -2.8560 C   0  0  0  0  0  0  0  0  0  0  0  0
    2.5080   -7.4570   -3.8100 C   0  0  0  0  0  0  0  0  0  0  0  0
    2.8330   -8.3180   -4.9530 C   0  0  2  0  0  0  0  0  0  0  0  0
    1.5450   -8.9020   -5.5330 C   0  0  1  0  0  0  0  0  0  0  0  0
    1.6760   -9.0450   -6.8480 F   0  0  0  0  0  0  0  0  0  0  0  0
    1.3080  -10.0880   -4.9810 F   0  0  0  0  0  0  0  0  0  0  0  0
    0.5310   -8.0820   -5.2760 F   0  0  0  0  0  0  0  0  0  0  0  0
    3.5630   -8.9890   -3.9910 O   0  0  0  0  0  0  0  0  0  0  0  0
    4.9860   -9.0110   -4.0230 C   0  0  2  0  0  0  0  0  0  0  0  0
    5.7760   -9.6750   -2.9580 C   0  0  0  0  0  0  0  0  0  0  0  0
    5.5620   -7.9480   -4.7910 N   0  0  0  0  0  0  0  0  0  0  0  0
    4.8530   -7.3760   -5.8520 C   0  0  0  0  0  0  0  0  0  0  0  0
    3.4800   -7.5650   -5.9290 C   0  0  0  0  0  0  0  0  0  0  0  0
    2.7580   -7.0060   -6.9760 C   0  0  0  0  0  0  0  0  0  0  0  0
    3.4150   -6.2560   -7.9450 C   0  0  0  0  0  0  0  0  0  0  0  0
    2.5220   -5.5590   -9.2460 Cl  0  0  0  0  0  0  0  0  0  0  0  0
    4.7900   -6.0660   -7.8670 C   0  0  0  0  0  0  0  0  0  0  0  0
    5.5110   -6.6270   -6.8200 C   0  0  0  0  0  0  0  0  0  0  0  0
  2  1  1  0
  3  2  1  0
  3  1  1  0
  3  4  1  6
  5  4  1  0
  6  5  1  1
  7  6  1  0
  7  8  1  6
  9  7  1  0
 10  7  1  0
 11  6  1  0
 11  5  1  0
 12 11  1  0
 12 13  1  1
 14 12  1  0
 15 14  1  0
 16 15  1  0
 16  6  1  0
 17 16  1  0
 18 17  1  0
 19 18  1  0
 20 18  1  0
 21 20  1  0
 21 15  1  0
M  END
$$$$
