
     RDKit          3D

 33 36  0  0  0  0  0  0  0  0999 V2000
  -13.4830   39.0240   48.5490 C   0  0  0  0  0  0  0  0  0  0  0  0
  -13.0750   37.5950   48.2400 C   0  0  0  0  0  0  0  0  0  0  0  0
  -11.5520   37.3470   48.2500 C   0  0  2  0  0  0  0  0  0  0  0  0
  -10.8120   38.1410   47.0970 C   0  0  0  0  0  0  0  0  0  0  0  0
  -11.2380   37.7870   45.6620 C   0  0  2  0  0  0  0  0  0  0  0  0
  -10.2110   36.9780   44.8090 C   0  0  2  0  0  0  0  0  0  0  0  0
  -10.8460   36.4100   43.5050 C   0  0  1  0  0  0  0  0  0  0  0  0
  -11.9440   35.3920   43.8140 C   0  0  0  0  0  0  0  0  0  0  0  0
  -11.4200   34.2160   44.6430 C   0  0  0  0  0  0  0  0  0  0  0  0
  -10.7860   34.6390   45.9780 C   0  0  2  0  0  0  0  0  0  0  0  0
   -9.7330   35.7370   45.6440 C   0  0  1  0  0  0  0  0  0  0  0  0
   -8.5970   34.9040   45.0570 C   0  0  0  0  0  0  0  0  0  0  0  0
   -8.6020   33.5560   45.7320 C   0  0  0  0  0  0  0  0  0  0  0  0
   -9.9110   33.4850   46.5110 C   0  0  0  0  0  0  0  0  0  0  0  0
  -11.8630   35.0340   47.0280 C   0  0  2  0  0  0  0  0  0  0  0  0
  -11.2550   35.8120   48.2300 C   0  0  2  0  0  0  0  0  0  0  0  0
  -12.6660   33.8190   47.4770 C   0  0  0  0  0  0  0  0  0  0  0  0
  -11.3190   37.4430   42.4870 C   0  0  0  0  0  0  0  0  0  0  0  0
   -9.0270   37.9030   44.4780 C   0  0  0  0  0  0  0  0  0  0  0  0
  -12.8000   39.4110   44.8670 C   0  0  0  0  0  0  0  0  0  0  0  0
  -12.9370   40.7440   44.1850 C   0  0  0  0  0  0  0  0  0  0  0  0
  -12.7250   43.4120   44.7350 C   0  0  0  0  0  0  0  0  0  0  0  0
  -13.1840   45.4530   44.9390 C   0  0  0  0  0  0  0  0  0  0  0  0
  -11.0370   37.8740   49.5960 C   0  0  0  0  0  0  0  0  0  0  0  0
  -12.1750   44.5940   45.1290 N   0  0  0  0  0  0  0  0  0  0  0  0
  -14.2590   44.8080   44.4680 N   0  0  0  0  0  0  0  0  0  0  0  0
  -13.9740   43.4810   44.3300 N   0  0  0  0  0  0  0  0  0  0  0  0
  -13.1350   46.7700   45.1720 N   0  0  0  0  0  0  0  0  0  0  0  0
   -7.8150   35.2400   44.1940 O   0  0  0  0  0  0  0  0  0  0  0  0
  -11.6110   35.2180   49.4710 O   0  0  0  0  0  0  0  0  0  0  0  0
  -11.5100   39.0510   44.9860 O   0  0  0  0  0  0  0  0  0  0  0  0
  -13.7180   38.7470   45.2630 O   0  0  0  0  0  0  0  0  0  0  0  0
  -11.7550   41.9590   44.7920 S   0  0  0  0  0  0  0  0  0  0  0  0
  2  1  1  0
  3  2  1  0
  4  3  1  0
  5  4  1  0
  6  5  1  0
  7  6  1  0
  8  7  1  0
  9  8  1  0
 10  9  1  6
 11 10  1  0
 11  6  1  0
 11 12  1  6
 13 12  1  0
 14 13  1  0
 14 10  1  0
 15 10  1  0
 16 15  1  0
 16  3  1  0
 15 17  1  1
  7 18  1  1
  6 19  1  6
 21 20  1  0
  3 24  1  1
 25 22  1  0
 25 23  1  0
 26 23  1  0
 27 22  1  0
 27 26  1  0
 28 23  1  0
 29 12  1  0
 16 30  1  1
  5 31  1  6
 31 20  1  0
 32 20  1  0
 33 22  1  0
 33 21  1  0
M  END
$$$$
