
     RDKit          3D

 25 28  0  0  0  0  0  0  0  0999 V2000
   40.1020  -19.9260    3.6250 Cl  0  0  0  0  0  0  0  0  0  0  0  0
   41.6030  -20.0060    2.7580 C   0  0  0  0  0  0  0  0  0  0  0  0
   41.5450  -20.4380    1.4450 C   0  0  0  0  0  0  0  0  0  0  0  0
   42.7040  -20.4930    0.6970 C   0  0  0  0  0  0  0  0  0  0  0  0
   43.9000  -20.1180    1.2540 C   0  0  0  0  0  0  0  0  0  0  0  0
   43.9540  -19.6890    2.5700 C   0  0  0  0  0  0  0  0  0  0  0  0
   42.8110  -19.6300    3.3560 C   0  0  2  0  0  0  0  0  0  0  0  0
   42.8530  -19.2360    4.8530 C   0  0  2  0  0  0  0  0  0  0  0  0
   44.2820  -18.9810    5.3810 C   0  0  0  0  0  0  0  0  0  0  0  0
   44.9610  -17.8170    5.0330 C   0  0  0  0  0  0  0  0  0  0  0  0
   46.2350  -17.5700    5.5160 C   0  0  0  0  0  0  0  0  0  0  0  0
   46.8500  -18.4770    6.3500 C   0  0  0  0  0  0  0  0  0  0  0  0
   46.1930  -19.6340    6.7020 C   0  0  0  0  0  0  0  0  0  0  0  0
   44.9180  -19.8870    6.2230 C   0  0  0  0  0  0  0  0  0  0  0  0
   42.2080  -20.3680    5.6470 N   0  0  0  0  0  0  0  0  0  0  0  0
   41.2550  -20.2780    6.6100 C   0  0  0  0  0  0  0  0  0  0  0  0
   40.8510  -21.4490    7.0480 N   0  0  0  0  0  0  0  0  0  0  0  0
   41.5900  -22.3560    6.3370 C   0  0  0  0  0  0  0  0  0  0  0  0
   42.4200  -21.7200    5.4810 C   0  0  0  0  0  0  0  0  0  0  0  0
   42.1140  -17.8930    5.0550 C   0  0  2  0  0  0  0  0  0  0  0  0
   41.6380  -17.1750    3.9630 C   0  0  0  0  0  0  0  0  0  0  0  0
   41.0340  -15.9410    4.1340 C   0  0  0  0  0  0  0  0  0  0  0  0
   40.8940  -15.4050    5.3940 C   0  0  0  0  0  0  0  0  0  0  0  0
   41.3570  -16.1010    6.4860 C   0  0  0  0  0  0  0  0  0  0  0  0
   41.9650  -17.3340    6.3220 C   0  0  0  0  0  0  0  0  0  0  0  0
  2  1  1  0
  3  2  1  0
  4  3  1  0
  5  4  1  0
  6  5  1  0
  7  2  1  0
  7  6  1  1
  8  7  1  0
  8  9  1  1
 10  9  1  0
 11 10  1  0
 12 11  1  0
 13 12  1  0
 14  9  1  0
 14 13  1  0
 15  8  1  0
 16 15  1  0
 17 16  1  0
 18 17  1  0
 19 18  1  0
 19 15  1  0
 20  8  1  0
 20 21  1  6
 22 21  1  0
 23 22  1  0
 24 23  1  0
 25 20  1  0
 25 24  1  0
M  END
$$$$
