
     RDKit          3D

 52 56  0  0  0  0  0  0  0  0999 V2000
  -25.2640   35.4470  -37.0550 C   0  0  1  0  0  0  0  0  0  0  0  0
  -24.2290   36.3760  -37.6380 C   0  0  2  0  0  0  0  0  0  0  0  0
  -23.3980   36.9450  -36.5280 C   0  0  2  0  0  0  0  0  0  0  0  0
  -24.3540   37.7140  -35.6000 C   0  0  2  0  0  0  0  0  0  0  0  0
  -25.0700   38.8310  -36.3430 C   0  0  1  0  0  0  0  0  0  0  0  0
  -25.8700   38.1990  -37.4780 C   0  0  2  0  0  0  0  0  0  0  0  0
  -24.8570   37.5660  -38.3770 C   0  0  2  0  0  0  0  0  0  0  0  0
  -25.4850   36.8250  -39.5480 C   0  0  2  0  0  0  0  0  0  0  0  0
  -24.2750   35.9830  -40.0020 C   0  0  2  0  0  0  0  0  0  0  0  0
  -23.5040   35.7090  -38.7350 C   0  0  0  0  0  0  0  0  0  0  0  0
  -26.5740   39.1740  -38.2860 C   0  0  2  0  0  0  0  0  0  0  0  0
  -27.2520   40.0580  -37.2860 C   0  0  2  0  0  0  0  0  0  0  0  0
  -27.0190   40.2690  -36.0450 C   0  0  1  0  0  0  0  0  0  0  0  0
  -25.8800   39.6510  -35.3830 C   0  0  2  0  0  0  0  0  0  0  0  0
  -25.0930   40.6500  -34.6710 C   0  0  1  0  0  0  0  0  0  0  0  0
  -26.0330   41.4290  -33.7340 C   0  0  2  0  0  0  0  0  0  0  0  0
  -26.9870   42.2390  -34.5820 C   0  0  1  0  0  0  0  0  0  0  0  0
  -27.9440   41.2440  -35.3160 C   0  0  2  0  0  0  0  0  0  0  0  0
  -26.8850   38.8500  -34.7930 C   0  0  0  0  0  0  0  0  0  0  0  0
  -22.4800   35.0720  -38.6530 O   0  0  0  0  0  0  0  0  0  0  0  0
  -27.8260   42.9490  -33.7060 O   0  0  0  0  0  0  0  0  0  0  0  0
  -28.6590   45.0270  -33.0700 O   0  0  0  0  0  0  0  0  0  0  0  0
  -26.2460   44.7480  -33.8050 O   0  0  0  0  0  0  0  0  0  0  0  0
  -28.0980   44.7510  -35.3600 O   0  0  0  0  0  0  0  0  0  0  0  0
  -27.6300   44.4400  -33.9100 S   0  0  1  0  0  0  0  0  0  0  0  0
  -25.1150   34.4490  -37.4470 H   0  0  0  0  0  0  0  0  0  0  0  0
  -25.1680   35.4310  -35.9770 H   0  0  0  0  0  0  0  0  0  0  0  0
  -26.2540   35.7960  -37.3240 H   0  0  0  0  0  0  0  0  0  0  0  0
  -22.6550   37.6200  -36.9330 H   0  0  0  0  0  0  0  0  0  0  0  0
  -22.9180   36.1440  -35.9800 H   0  0  0  0  0  0  0  0  0  0  0  0
  -23.7850   38.1420  -34.7840 H   0  0  0  0  0  0  0  0  0  0  0  0
  -25.0890   37.0260  -35.2020 H   0  0  0  0  0  0  0  0  0  0  0  0
  -24.3820   39.5490  -36.7720 H   0  0  0  0  0  0  0  0  0  0  0  0
  -26.5880   37.5210  -37.0350 H   0  0  0  0  0  0  0  0  0  0  0  0
  -24.0920   38.2750  -38.6690 H   0  0  0  0  0  0  0  0  0  0  0  0
  -25.8030   37.5100  -40.3240 H   0  0  0  0  0  0  0  0  0  0  0  0
  -26.3040   36.1940  -39.2220 H   0  0  0  0  0  0  0  0  0  0  0  0
  -23.6660   36.5430  -40.7010 H   0  0  0  0  0  0  0  0  0  0  0  0
  -24.6070   35.0550  -40.4500 H   0  0  0  0  0  0  0  0  0  0  0  0
  -27.3510   38.6430  -38.8210 H   0  0  0  0  0  0  0  0  0  0  0  0
  -25.8240   39.7750  -38.7850 H   0  0  0  0  0  0  0  0  0  0  0  0
  -27.9580   39.2390  -37.2250 H   0  0  0  0  0  0  0  0  0  0  0  0
  -24.3220   40.1600  -34.0900 H   0  0  0  0  0  0  0  0  0  0  0  0
  -24.6390   41.3310  -35.3810 H   0  0  0  0  0  0  0  0  0  0  0  0
  -25.4530   42.0910  -33.1030 H   0  0  0  0  0  0  0  0  0  0  0  0
  -26.5920   40.7340  -33.1190 H   0  0  0  0  0  0  0  0  0  0  0  0
  -26.4350   42.8730  -35.2650 H   0  0  0  0  0  0  0  0  0  0  0  0
  -28.5610   40.7150  -34.6000 H   0  0  0  0  0  0  0  0  0  0  0  0
  -28.5690   41.7730  -36.0240 H   0  0  0  0  0  0  0  0  0  0  0  0
  -27.6390   38.6130  -35.5330 H   0  0  0  0  0  0  0  0  0  0  0  0
  -27.3410   39.3890  -33.9720 H   0  0  0  0  0  0  0  0  0  0  0  0
  -26.4440   37.9330  -34.4220 H   0  0  0  0  0  0  0  0  0  0  0  0
  2  1  1  0
  3  2  1  0
  4  3  1  0
  5  4  1  0
  6  5  1  0
  7  2  1  0
  7  6  1  0
  8  7  1  0
  9  8  1  0
 10  9  1  0
  2 10  1  6
 11  6  1  0
 12 11  1  0
 13 12  1  0
 14 13  1  0
 14  5  1  0
 15 14  1  0
 16 15  1  0
 17 16  1  0
 18 17  1  0
 18 13  1  0
 14 19  1  1
 13 19  1  1
 20 10  1  0
 21 17  1  0
 25 21  1  0
 25 24  1  6
 25 22  1  0
 25 23  1  0
  1 26  1  6
 27  1  1  0
 28  1  1  0
  3 29  1  6
 30  3  1  0
  4 31  1  1
 32  4  1  0
  5 33  1  6
  6 34  1  1
  7 35  1  6
  8 36  1  6
 37  8  1  0
  9 38  1  6
 39  9  1  0
 11 40  1  6
 41 11  1  0
 12 42  1  1
 15 43  1  1
 44 15  1  0
 16 45  1  1
 46 16  1  0
 17 47  1  6
 18 48  1  1
 49 18  1  0
 50 19  1  0
 51 19  1  0
 52 19  1  0
M  END
$$$$
