
     RDKit          3D

 70 72  0  0  0  0  0  0  0  0999 V2000
  -13.1890   -3.1100   29.6430 O   0  0  0  0  0  0  0  0  0  0  0  0
  -14.3090   -2.6800   29.9650 C   0  0  0  0  0  0  0  0  0  0  0  0
  -14.6800   -1.3360   29.6680 O   0  0  0  0  0  0  0  0  0  0  0  0
  -13.6960   -0.4600   29.1130 C   0  0  2  0  0  0  0  0  0  0  0  0
  -13.8320    0.9000   29.7900 C   0  0  1  0  0  0  0  0  0  0  0  0
  -13.8120    0.7790   31.2870 C   0  0  2  0  0  0  0  0  0  0  0  0
  -13.9550   -0.3880   27.6160 C   0  0  2  0  0  0  0  0  0  0  0  0
  -15.4540   -0.3360   27.3190 C   0  0  0  0  0  0  0  0  0  0  0  0
  -13.2890   -1.5630   26.8790 C   0  0  2  0  0  0  0  0  0  0  0  0
  -11.8480   -1.5490   26.9820 O   0  0  0  0  0  0  0  0  0  0  0  0
  -13.6500   -1.6280   25.3870 C   0  0  1  0  0  0  0  0  0  0  0  0
  -13.1150   -0.3800   24.6450 C   0  0  0  0  0  0  0  0  0  0  0  0
  -15.4150   -3.4220   30.6950 C   0  0  2  0  0  0  0  0  0  0  0  0
  -14.9250   -3.7220   32.1100 C   0  0  0  0  0  0  0  0  0  0  0  0
  -15.9340   -4.6420   29.9320 C   0  0  1  0  0  0  0  0  0  0  0  0
  -17.1350   -5.0760   30.6160 O   0  0  0  0  0  0  0  0  0  0  0  0
  -17.3500   -6.4590   30.7860 C   0  0  2  0  0  0  0  0  0  0  0  0
  -18.5220   -6.8020   30.0420 O   0  0  0  0  0  0  0  0  0  0  0  0
  -19.7530   -6.2440   30.4920 C   0  0  1  0  0  0  0  0  0  0  0  0
  -20.8630   -6.7260   29.5480 C   0  0  0  0  0  0  0  0  0  0  0  0
  -19.9900   -6.7400   31.9030 C   0  0  2  0  0  0  0  0  0  0  0  0
  -21.2260   -6.2090   32.3990 O   0  0  0  0  0  0  0  0  0  0  0  0
  -18.8370   -6.4250   32.8790 C   0  0  2  0  0  0  0  0  0  0  0  0
  -19.0960   -7.1640   34.1960 C   0  0  0  0  0  0  0  0  0  0  0  0
  -18.8470   -5.0330   33.2060 O   0  0  0  0  0  0  0  0  0  0  0  0
  -17.4760   -6.8130   32.2770 C   0  0  0  0  0  0  0  0  0  0  0  0
  -16.1930   -4.3500   28.4290 C   0  0  2  0  0  0  0  0  0  0  0  0
  -17.5410   -3.6310   28.2030 C   0  0  0  0  0  0  0  0  0  0  0  0
  -16.0080   -5.6200   27.5810 C   0  0  2  0  0  0  0  0  0  0  0  0
  -14.5870   -5.8120   27.0140 C   0  0  2  0  0  0  0  0  0  0  0  0
  -14.4040   -7.2480   26.5320 C   0  0  0  0  0  0  0  0  0  0  0  0
  -13.6120   -5.6310   28.0680 O   0  0  0  0  0  0  0  0  0  0  0  0
  -14.4360   -4.8240   25.8280 C   0  0  0  0  0  0  0  0  0  0  0  0
  -13.0570   -4.2440   25.5430 C   0  0  1  0  0  0  0  0  0  0  0  0
  -12.1990   -5.2560   24.7690 C   0  0  0  0  0  0  0  0  0  0  0  0
  -13.1340   -2.9370   24.7880 C   0  0  2  0  0  0  0  0  0  0  0  0
  -12.7100   -2.9080   23.6560 O   0  0  0  0  0  0  0  0  0  0  0  0
  -16.8790   -5.6580   26.4560 O   0  0  0  0  0  0  0  0  0  0  0  0
  -17.9670   -6.5730   26.5900 C   0  0  2  0  0  0  0  0  0  0  0  0
  -17.5330   -7.9270   26.6810 O   0  0  0  0  0  0  0  0  0  0  0  0
  -18.6250   -8.8370   26.8470 C   0  0  2  0  0  0  0  0  0  0  0  0
  -18.0450  -10.2120   27.0580 C   0  0  0  0  0  0  0  0  0  0  0  0
  -19.5770   -8.7810   25.6460 C   0  0  0  0  0  0  0  0  0  0  0  0
  -20.0160   -7.3250   25.3790 C   0  0  2  0  0  0  0  0  0  0  0  0
  -20.8900   -7.0990   24.1860 N   0  0  0  0  0  0  0  0  0  0  0  0
  -22.1760   -7.7880   24.3760 C   0  0  0  0  0  0  0  0  0  0  0  0
  -20.3240   -7.4600   22.8740 C   0  0  0  0  0  0  0  0  0  0  0  0
  -18.7910   -6.4180   25.3100 C   0  0  1  0  0  0  0  0  0  0  0  0
  -19.2090   -5.0540   25.1640 O   0  0  0  0  0  0  0  0  0  0  0  0
  -12.6830   -0.8400   29.2910 H   0  0  0  0  0  0  0  0  0  0  0  0
  -16.2500   -2.7250   30.7780 H   0  0  0  0  0  0  0  0  0  0  0  0
  -12.9900    1.5150   29.4760 H   0  0  0  0  0  0  0  0  0  0  0  0
  -14.7520    1.3970   29.4770 H   0  0  0  0  0  0  0  0  0  0  0  0
  -13.5070    0.5490   27.2570 H   0  0  0  0  0  0  0  0  0  0  0  0
  -14.7900    0.5810   31.6420 H   0  0  0  0  0  0  0  0  0  0  0  0
  -13.4580    1.6820   31.7120 H   0  0  0  0  0  0  0  0  0  0  0  0
  -13.1700   -0.0150   31.5690 H   0  0  0  0  0  0  0  0  0  0  0  0
  -13.6690   -2.4740   27.3480 H   0  0  0  0  0  0  0  0  0  0  0  0
  -14.7410   -1.6400   25.2810 H   0  0  0  0  0  0  0  0  0  0  0  0
  -15.1650   -5.4230   30.0040 H   0  0  0  0  0  0  0  0  0  0  0  0
  -15.4300   -3.6350   28.1030 H   0  0  0  0  0  0  0  0  0  0  0  0
  -16.5010   -7.0310   30.3880 H   0  0  0  0  0  0  0  0  0  0  0  0
  -19.7180   -5.1450   30.4850 H   0  0  0  0  0  0  0  0  0  0  0  0
  -20.0810   -7.8350   31.8490 H   0  0  0  0  0  0  0  0  0  0  0  0
  -16.2210   -6.4780   28.2320 H   0  0  0  0  0  0  0  0  0  0  0  0
  -12.5440   -4.0720   26.4970 H   0  0  0  0  0  0  0  0  0  0  0  0
  -18.5940   -6.3110   27.4520 H   0  0  0  0  0  0  0  0  0  0  0  0
  -18.1570   -6.7100   24.4610 H   0  0  0  0  0  0  0  0  0  0  0  0
  -19.1930   -8.5660   27.7470 H   0  0  0  0  0  0  0  0  0  0  0  0
  -20.5750   -7.0070   26.2710 H   0  0  0  0  0  0  0  0  0  0  0  0
  2  1  1  0
  3  2  1  0
  4  3  1  0
  5  4  1  0
  6  5  1  0
  7  4  1  0
  8  7  1  0
  9  7  1  0
 10  9  1  0
 11  9  1  0
 12 11  1  0
 13  2  1  0
 14 13  1  0
 15 13  1  0
 16 15  1  0
 17 16  1  0
 18 17  1  0
 19 18  1  0
 20 19  1  0
 21 19  1  0
 22 21  1  0
 23 21  1  0
 23 24  1  1
 25 23  1  0
 26 17  1  0
 26 23  1  0
 27 15  1  0
 28 27  1  0
 29 27  1  0
 30 29  1  0
 30 31  1  6
 32 30  1  0
 33 30  1  0
 34 33  1  0
 35 34  1  0
 36 34  1  0
 36 11  1  0
 36 37  1  1
 38 29  1  0
 39 38  1  0
 40 39  1  0
 41 40  1  0
 42 41  1  0
 43 41  1  0
 44 43  1  0
 45 44  1  0
 46 45  1  0
 47 45  1  0
 48 44  1  0
 48 39  1  0
 49 48  1  0
  4 50  1  6
 13 51  1  1
  5 52  1  6
 53  5  1  0
  7 54  1  6
  6 55  1  1
 56  6  1  0
 57  6  1  0
  9 58  1  1
 11 59  1  1
 15 60  1  6
 27 61  1  6
 17 62  1  6
 19 63  1  1
 21 64  1  6
 29 65  1  1
 34 66  1  1
 39 67  1  1
 48 68  1  6
 41 69  1  1
 44 70  1  1
M  END
$$$$
