
     RDKit          3D

 22 24  0  0  0  0  0  0  0  0999 V2000
   16.4490   -6.6240   19.7710 O   0  0  0  0  0  0  0  0  0  0  0  0
   17.4480   -6.3650   18.7950 C   0  0  1  0  0  0  0  0  0  0  0  0
   17.0100   -6.9940   17.4790 C   0  0  0  0  0  0  0  0  0  0  0  0
   17.6250   -4.8590   18.5360 C   0  0  0  0  0  0  0  0  0  0  0  0
   18.7190   -7.0230   19.2180 C   0  0  0  0  0  0  0  0  0  0  0  0
   15.5700   -6.7990   17.2890 N   0  0  0  0  0  0  0  0  0  0  0  0
   14.5240   -6.9540   18.1050 C   0  0  0  0  0  0  0  0  0  0  0  0
   15.1380   -6.4250   16.0020 N   0  0  0  0  0  0  0  0  0  0  0  0
   13.4200   -6.6810   17.3640 N   0  0  0  0  0  0  0  0  0  0  0  0
   13.7910   -6.3450   16.0960 C   0  0  0  0  0  0  0  0  0  0  0  0
   18.1990   -4.0810   19.6280 N   0  0  0  0  0  0  0  0  0  0  0  0
   17.7130   -3.6210   20.7700 C   0  0  0  0  0  0  0  0  0  0  0  0
   19.5000   -3.6250   19.4190 N   0  0  0  0  0  0  0  0  0  0  0  0
   18.7120   -2.9250   21.3460 N   0  0  0  0  0  0  0  0  0  0  0  0
   19.8110   -2.9580   20.5470 C   0  0  0  0  0  0  0  0  0  0  0  0
   18.9710   -7.5990   20.4670 C   0  0  0  0  0  0  0  0  0  0  0  0
   19.7530   -7.0710   18.1750 C   0  0  2  0  0  0  0  0  0  0  0  0
   20.2400   -8.1430   20.7200 C   0  0  0  0  0  0  0  0  0  0  0  0
   21.2420   -8.1160   19.7460 C   0  0  1  0  0  0  0  0  0  0  0  0
   22.4500   -8.6610   19.9880 F   0  0  0  0  0  0  0  0  0  0  0  0
   21.0000   -7.5870   18.4790 C   0  0  0  0  0  0  0  0  0  0  0  0
   19.4400   -6.5360   16.9800 F   0  0  0  0  0  0  0  0  0  0  0  0
  2  1  1  1
  3  2  1  0
  4  2  1  0
  5  2  1  0
  6  3  1  0
  7  6  1  0
  8  6  1  0
  9  7  1  0
 10  8  1  0
 10  9  1  0
 11  4  1  0
 12 11  1  0
 13 11  1  0
 14 12  1  0
 15 14  1  0
 15 13  1  0
 16  5  1  0
 17  5  1  0
 18 16  1  0
 19 18  1  0
 19 20  1  6
 21 19  1  0
 21 17  1  0
 17 22  1  1
M  END
$$$$
