
     RDKit          3D

 50 52  0  0  0  0  0  0  0  0999 V2000
   15.3110   -2.5370   30.2640 C   0  0  0  0  0  0  0  0  0  0  0  0
    8.6290   -6.8780   24.4300 N   0  0  0  0  0  0  0  0  0  0  0  0
   16.4040   -2.9500   29.8950 O   0  0  0  0  0  0  0  0  0  0  0  0
   14.2850   -3.3500   31.0290 C   0  0  1  0  0  0  0  0  0  0  0  0
   14.8960   -1.1940   29.9780 O   0  0  0  0  0  0  0  0  0  0  0  0
   13.7620   -4.5710   30.2340 C   0  0  1  0  0  0  0  0  0  0  0  0
   12.5580   -5.0080   30.8920 O   0  0  0  0  0  0  0  0  0  0  0  0
   13.4850   -4.2210   28.7620 C   0  0  1  0  0  0  0  0  0  0  0  0
   11.1340   -6.7610   30.3240 O   0  0  0  0  0  0  0  0  0  0  0  0
   13.6580   -5.4430   27.8190 C   0  0  2  0  0  0  0  0  0  0  0  0
   11.1020   -5.1570   33.5990 O   0  0  0  0  0  0  0  0  0  0  0  0
   15.0500   -5.5510   27.1820 C   0  0  1  0  0  0  0  0  0  0  0  0
    8.6210   -6.2890   32.9340 O   0  0  0  0  0  0  0  0  0  0  0  0
   15.1600   -4.5000   26.0570 C   0  0  0  0  0  0  0  0  0  0  0  0
   12.7190   -5.4040   26.7380 O   0  0  0  0  0  0  0  0  0  0  0  0
   16.5380   -3.8900   25.7470 C   0  0  2  0  0  0  0  0  0  0  0  0
   10.2890   -4.6940   25.4200 O   0  0  0  0  0  0  0  0  0  0  0  0
   16.3970   -2.5840   24.9740 C   0  0  0  0  0  0  0  0  0  0  0  0
   12.0010   -7.6230   26.8790 O   0  0  0  0  0  0  0  0  0  0  0  0
   15.8670   -1.3020   25.6210 C   0  0  1  0  0  0  0  0  0  0  0  0
   16.0610   -5.3630   28.1770 O   0  0  0  0  0  0  0  0  0  0  0  0
   16.2250   -1.2540   27.1100 C   0  0  2  0  0  0  0  0  0  0  0  0
   16.6900   -2.5420   23.7940 O   0  0  0  0  0  0  0  0  0  0  0  0
   15.5160   -0.1390   27.8980 C   0  0  2  0  0  0  0  0  0  0  0  0
   17.6510   -1.1440   27.2250 O   0  0  0  0  0  0  0  0  0  0  0  0
   15.8000   -0.2660   29.3990 C   0  0  1  0  0  0  0  0  0  0  0  0
   12.3630   -6.4280   30.9980 C   0  0  2  0  0  0  0  0  0  0  0  0
   12.3370   -6.9010   32.4680 C   0  0  0  0  0  0  0  0  0  0  0  0
   11.0440   -6.5430   33.2310 C   0  0  2  0  0  0  0  0  0  0  0  0
    9.8200   -6.7770   32.3290 C   0  0  2  0  0  0  0  0  0  0  0  0
    9.9800   -6.1790   30.9240 C   0  0  2  0  0  0  0  0  0  0  0  0
   10.9930   -7.3950   34.5210 C   0  0  0  0  0  0  0  0  0  0  0  0
   10.7660   -4.6820   34.9150 C   0  0  0  0  0  0  0  0  0  0  0  0
    8.7760   -6.4480   30.0250 C   0  0  0  0  0  0  0  0  0  0  0  0
   11.5710   -6.2610   26.8240 C   0  0  2  0  0  0  0  0  0  0  0  0
   10.6910   -6.0760   25.5860 C   0  0  1  0  0  0  0  0  0  0  0  0
    9.4910   -7.0420   25.6430 C   0  0  2  0  0  0  0  0  0  0  0  0
    9.9770   -8.4860   25.8820 C   0  0  0  0  0  0  0  0  0  0  0  0
   10.9280   -8.5520   27.0790 C   0  0  1  0  0  0  0  0  0  0  0  0
   11.5480   -9.9470   27.2390 C   0  0  0  0  0  0  0  0  0  0  0  0
    9.2260   -7.3270   23.1380 C   0  0  0  0  0  0  0  0  0  0  0  0
    7.3480   -7.5820   24.6160 C   0  0  0  0  0  0  0  0  0  0  0  0
   14.8070   -3.6740   32.4370 C   0  0  0  0  0  0  0  0  0  0  0  0
   12.1250   -3.5150   28.6120 C   0  0  0  0  0  0  0  0  0  0  0  0
   15.2510   -6.9660   26.6130 C   0  0  0  0  0  0  0  0  0  0  0  0
   17.4210   -4.9050   25.0000 C   0  0  0  0  0  0  0  0  0  0  0  0
   16.3260   -0.0300   24.8940 C   0  0  0  0  0  0  0  0  0  0  0  0
   14.0160   -0.0800   27.5620 C   0  0  0  0  0  0  0  0  0  0  0  0
   15.5120    1.0310   30.1480 C   0  0  0  0  0  0  0  0  0  0  0  0
   15.9160    0.8870   31.6050 C   0  0  0  0  0  0  0  0  0  0  0  0
  3  1  1  0
  4  1  1  0
  5  1  1  0
  6  4  1  0
  6  7  1  1
  8  6  1  0
 10  8  1  0
 12 10  1  0
 14 12  1  0
 10 15  1  6
 16 14  1  0
 18 16  1  0
 20 18  1  0
 21 12  1  0
 22 20  1  0
 23 18  1  0
 24 22  1  0
 22 25  1  6
 26 24  1  0
 26  5  1  0
 27  9  1  0
 27  7  1  1
 28 27  1  0
 29 28  1  0
 29 11  1  0
 30 13  1  1
 30 29  1  0
 31 30  1  0
 31  9  1  0
 29 32  1  1
 33 11  1  0
 31 34  1  6
 35 19  1  0
 35 15  1  6
 36 17  1  1
 36 35  1  0
 37 36  1  0
 37  2  1  6
 38 37  1  0
 39 38  1  0
 39 19  1  0
 39 40  1  6
 41  2  1  0
 42  2  1  0
  4 43  1  1
  8 44  1  1
 12 45  1  6
 16 46  1  6
 20 47  1  6
 24 48  1  1
 26 49  1  1
 50 49  1  0
M  END
$$$$
