
     RDKit          3D

 36 35  0  0  0  0  0  0  0  0999 V2000
   67.9700   17.3280   88.3290 O   0  0  0  0  0  0  0  0  0  0  0  0
   68.1140   17.6100   89.9720 P   0  0  0  0  0  0  0  0  0  0  0  0
   69.4380   18.4690   90.5200 O   0  0  0  0  0  0  0  0  0  0  0  0
   66.5700   17.7610   90.9440 O   0  0  0  0  0  0  0  0  0  0  0  0
   65.9530   19.0430   91.0470 C   0  0  0  0  0  0  0  0  0  0  0  0
   64.4940   18.8920   91.4600 C   0  0  2  0  0  0  0  0  0  0  0  0
   63.9650   17.5630   90.9340 C   0  0  0  0  0  0  0  0  0  0  0  0
   63.6890   20.0300   90.8520 C   0  0  0  0  0  0  0  0  0  0  0  0
   64.3890   18.9910   92.9850 C   0  0  2  0  0  0  0  0  0  0  0  0
   65.6210   18.6100   93.5990 O   0  0  0  0  0  0  0  0  0  0  0  0
   63.2490   18.1930   93.5620 C   0  0  0  0  0  0  0  0  0  0  0  0
   63.0080   16.9460   93.1610 O   0  0  0  0  0  0  0  0  0  0  0  0
   62.5320   18.7280   94.4530 N   0  0  0  0  0  0  0  0  0  0  0  0
   61.3890   18.1690   95.1630 C   0  0  0  0  0  0  0  0  0  0  0  0
   60.1980   18.3020   94.2180 C   0  0  0  0  0  0  0  0  0  0  0  0
   59.7910   19.7490   94.0380 C   0  0  0  0  0  0  0  0  0  0  0  0
   60.6980   20.7220   94.0890 O   0  0  0  0  0  0  0  0  0  0  0  0
   58.5810   20.0370   93.8290 N   0  0  0  0  0  0  0  0  0  0  0  0
   58.0160   21.3610   93.6060 C   0  0  0  0  0  0  0  0  0  0  0  0
   57.2920   21.7480   94.8900 C   0  0  0  0  0  0  0  0  0  0  0  0
   55.8190   22.6530   94.5170 S   0  0  0  0  0  0  0  0  0  0  0  0
   55.9950   23.6110   93.0420 C   0  0  2  0  0  0  0  0  0  0  0  0
   57.1940   23.7740   92.4950 O   0  0  0  0  0  0  0  0  0  0  0  0
   54.8070   24.4010   92.4970 C   0  0  0  0  0  0  0  0  0  0  0  0
   53.4800   23.7120   92.7940 C   0  0  0  0  0  0  0  0  0  0  0  0
   52.5570   24.6150   93.6040 C   0  0  0  0  0  0  0  0  0  0  0  0
   51.6430   25.4290   92.6960 C   0  0  0  0  0  0  0  0  0  0  0  0
   50.1990   24.9500   92.7830 C   0  0  0  0  0  0  0  0  0  0  0  0
   49.4730   25.1850   91.4630 C   0  0  0  0  0  0  0  0  0  0  0  0
   48.1730   24.3910   91.3900 C   0  0  0  0  0  0  0  0  0  0  0  0
   48.4410   22.8930   91.2920 C   0  0  0  0  0  0  0  0  0  0  0  0
   48.9130   22.2760   89.9800 C   0  0  0  0  0  0  0  0  0  0  0  0
   49.8500   21.0730   90.0040 C   0  0  0  0  0  0  0  0  0  0  0  0
   50.1600   20.5700   88.5990 C   0  0  0  0  0  0  0  0  0  0  0  0
   51.2970   19.5550   88.6280 C   0  0  0  0  0  0  0  0  0  0  0  0
   51.2030   18.5800   87.4600 C   0  0  0  0  0  0  0  0  0  0  0  0
  2  1  1  0
  3  2  1  0
  4  2  1  0
  5  4  1  0
  6  5  1  0
  6  7  1  6
  8  6  1  0
  9  6  1  0
  9 10  1  1
 11  9  1  0
 12 11  1  0
 13 11  1  0
 14 13  1  0
 15 14  1  0
 16 15  1  0
 17 16  1  0
 18 16  1  0
 19 18  1  0
 20 19  1  0
 21 20  1  0
 22 21  1  0
 22 23  1  1
 24 22  1  0
 25 24  1  0
 26 25  1  0
 27 26  1  0
 28 27  1  0
 29 28  1  0
 30 29  1  0
 31 30  1  0
 32 31  1  0
 33 32  1  0
 34 33  1  0
 35 34  1  0
 36 35  1  0
M  END
$$$$
