
     RDKit          3D

 38 37  0  0  0  0  0  0  0  0999 V2000
   65.8780   16.9440   88.5330 O   0  0  0  0  0  0  0  0  0  0  0  0
   66.0940   17.1020   90.1850 P   0  0  0  0  0  0  0  0  0  0  0  0
   67.4160   17.9650   90.7370 O   0  0  0  0  0  0  0  0  0  0  0  0
   64.6080   17.0810   91.2450 O   0  0  0  0  0  0  0  0  0  0  0  0
   63.8210   18.2630   91.3540 C   0  0  0  0  0  0  0  0  0  0  0  0
   62.3520   17.8880   91.4890 C   0  0  2  0  0  0  0  0  0  0  0  0
   61.9420   17.0480   90.2910 C   0  0  0  0  0  0  0  0  0  0  0  0
   61.5180   19.1650   91.4980 C   0  0  0  0  0  0  0  0  0  0  0  0
   62.1550   17.0740   92.7720 C   0  0  2  0  0  0  0  0  0  0  0  0
   61.0450   16.1700   92.6520 O   0  0  0  0  0  0  0  0  0  0  0  0
   61.9730   17.9830   93.9540 C   0  0  0  0  0  0  0  0  0  0  0  0
   63.0050   18.7300   94.3430 O   0  0  0  0  0  0  0  0  0  0  0  0
   60.8690   18.0470   94.5750 N   0  0  0  0  0  0  0  0  0  0  0  0
   59.6350   17.3210   94.3030 C   0  0  0  0  0  0  0  0  0  0  0  0
   58.5930   17.8860   95.2540 C   0  0  0  0  0  0  0  0  0  0  0  0
   57.9390   19.1030   94.6410 C   0  0  0  0  0  0  0  0  0  0  0  0
   58.6830   20.1160   94.2080 O   0  0  0  0  0  0  0  0  0  0  0  0
   56.6820   19.1630   94.5620 N   0  0  0  0  0  0  0  0  0  0  0  0
   55.8840   20.2500   94.0150 C   0  0  0  0  0  0  0  0  0  0  0  0
   55.4590   21.0820   95.2200 C   0  0  0  0  0  0  0  0  0  0  0  0
   53.9100   21.8610   94.8910 S   0  0  0  0  0  0  0  0  0  0  0  0
   53.9080   22.5520   93.2640 C   0  0  2  0  0  0  0  0  0  0  0  0
   55.0530   22.9610   92.7290 O   0  0  0  0  0  0  0  0  0  0  0  0
   52.5910   23.0070   92.6450 C   0  0  0  0  0  0  0  0  0  0  0  0
   51.7290   23.7270   93.6770 C   0  0  0  0  0  0  0  0  0  0  0  0
   50.5940   24.4950   93.0160 C   0  0  0  0  0  0  0  0  0  0  0  0
   49.2490   23.8840   93.3800 C   0  0  0  0  0  0  0  0  0  0  0  0
   48.1270   24.9100   93.2710 C   0  0  0  0  0  0  0  0  0  0  0  0
   47.2700   24.6720   92.0320 C   0  0  0  0  0  0  0  0  0  0  0  0
   46.6420   23.2830   92.0410 C   0  0  0  0  0  0  0  0  0  0  0  0
   45.9080   23.0150   90.7330 C   0  0  0  0  0  0  0  0  0  0  0  0
   46.2710   22.0380   89.9010 C   0  0  0  0  0  0  0  0  0  0  0  0
   47.4470   21.1060   90.1840 C   0  0  0  0  0  0  0  0  0  0  0  0
   47.4260   19.9320   89.2110 C   0  0  0  0  0  0  0  0  0  0  0  0
   48.8250   19.4070   88.9120 C   0  0  0  0  0  0  0  0  0  0  0  0
   48.7670   17.9270   88.5520 C   0  0  0  0  0  0  0  0  0  0  0  0
   49.6130   17.6190   87.3220 C   0  0  0  0  0  0  0  0  0  0  0  0
   49.5280   16.1520   86.9590 C   0  0  0  0  0  0  0  0  0  0  0  0
  2  1  1  0
  3  2  1  0
  4  2  1  0
  5  4  1  0
  6  5  1  0
  6  7  1  6
  8  6  1  0
  9  6  1  0
  9 10  1  6
 11  9  1  0
 12 11  1  0
 13 11  1  0
 14 13  1  0
 15 14  1  0
 16 15  1  0
 17 16  1  0
 18 16  1  0
 19 18  1  0
 20 19  1  0
 21 20  1  0
 22 21  1  0
 22 23  1  1
 24 22  1  0
 25 24  1  0
 26 25  1  0
 27 26  1  0
 28 27  1  0
 29 28  1  0
 30 29  1  0
 31 30  1  0
 32 31  1  0
 33 32  1  0
 34 33  1  0
 35 34  1  0
 36 35  1  0
 37 36  1  0
 38 37  1  0
M  END
$$$$
