
     RDKit          3D

 34 36  0  0  0  0  0  0  0  0999 V2000
   21.9920   33.9550   74.6490 C   0  0  2  0  0  0  0  0  0  0  0  0
   23.1280   33.9950   75.6440 C   0  0  1  0  0  0  0  0  0  0  0  0
   23.1040   35.8710   77.0130 C   0  0  1  0  0  0  0  0  0  0  0  0
   22.4050   36.5430   78.1510 C   0  0  1  0  0  0  0  0  0  0  0  0
   22.4870   37.8690   78.5100 C   0  0  0  0  0  0  0  0  0  0  0  0
   21.5710   38.0700   79.5720 C   0  0  0  0  0  0  0  0  0  0  0  0
   21.2340   39.1950   80.3470 C   0  0  0  0  0  0  0  0  0  0  0  0
   20.2670   39.0690   81.3250 C   0  0  2  0  0  0  0  0  0  0  0  0
   19.9320   40.1600   82.2060 C   0  0  1  0  0  0  0  0  0  0  0  0
   18.7020   40.4030   82.8380 C   0  0  0  0  0  0  0  0  0  0  0  0
   18.5320   41.4920   83.7290 C   0  0  0  0  0  0  0  0  0  0  0  0
   20.6930   42.0910   83.4860 C   0  0  0  0  0  0  0  0  0  0  0  0
   20.9170   41.0860   82.5570 C   0  0  0  0  0  0  0  0  0  0  0  0
   19.6900   37.8210   81.5660 C   0  0  0  0  0  0  0  0  0  0  0  0
   20.0180   36.6940   80.8340 C   0  0  0  0  0  0  0  0  0  0  0  0
   20.9690   36.8470   79.8000 C   0  0  0  0  0  0  0  0  0  0  0  0
   19.5120   42.3000   84.0640 N   0  0  0  0  0  0  0  0  0  0  0  0
   21.4970   35.9460   78.9290 N   0  0  0  0  0  0  0  0  0  0  0  0
   22.6010   34.6300   76.8120 O   0  0  0  0  0  0  0  0  0  0  0  0
   23.8340   36.4460   76.2700 O   0  0  0  0  0  0  0  0  0  0  0  0
   22.2770   33.5220   73.8660 H   0  0  0  0  0  0  0  0  0  0  0  0
   21.7250   34.8320   74.4420 H   0  0  0  0  0  0  0  0  0  0  0  0
   21.2670   33.4870   75.0190 H   0  0  0  0  0  0  0  0  0  0  0  0
   23.4140   33.1240   75.8470 H   0  0  0  0  0  0  0  0  0  0  0  0
   23.8460   34.4920   75.2990 H   0  0  0  0  0  0  0  0  0  0  0  0
   23.0400   38.5110   78.1290 H   0  0  0  0  0  0  0  0  0  0  0  0
   21.6550   40.0110   80.2020 H   0  0  0  0  0  0  0  0  0  0  0  0
   17.9840   39.8380   82.6690 H   0  0  0  0  0  0  0  0  0  0  0  0
   17.6900   41.6420   84.0920 H   0  0  0  0  0  0  0  0  0  0  0  0
   21.4020   42.6470   83.7150 H   0  0  0  0  0  0  0  0  0  0  0  0
   21.7520   41.0270   82.1530 H   0  0  0  0  0  0  0  0  0  0  0  0
   19.0600   37.7450   82.2450 H   0  0  0  0  0  0  0  0  0  0  0  0
   19.6290   35.8700   81.0150 H   0  0  0  0  0  0  0  0  0  0  0  0
   21.2770   35.1080   78.8850 H   0  0  0  0  0  0  0  0  0  0  0  0
  2  1  1  0
  4  3  1  0
  4  5  1  6
  6  5  1  0
  7  6  1  0
  8  7  1  1
  9  8  1  0
  9 10  1  1
 11 10  1  0
 13 12  1  0
 13  9  1  0
 14  8  1  0
 15 14  1  0
 16 15  1  0
 16  6  1  0
 17 12  1  0
 17 11  1  0
 18 16  1  0
 18  4  1  0
 19  2  1  0
 19  3  1  0
  3 20  1  6
  1 21  1  6
 22  1  1  0
 23  1  1  0
  2 24  1  1
 25  2  1  0
 26  5  1  0
 27  7  1  0
 28 10  1  0
 29 11  1  0
 30 12  1  0
 31 13  1  0
 32 14  1  0
 33 15  1  0
 34 18  1  0
M  END
$$$$
