
     RDKit          3D

 72 75  0  0  0  0  0  0  0  0999 V2000
   38.5130  -48.9630  -28.8570 C   0  0  2  0  0  0  0  0  0  0  0  0
   37.4890  -48.8960  -29.9820 C   0  0  1  0  0  0  0  0  0  0  0  0
   36.3560  -47.9740  -29.6250 C   0  0  0  0  0  0  0  0  0  0  0  0
   36.6910  -46.8580  -28.7490 C   0  0  0  0  0  0  0  0  0  0  0  0
   37.9320  -46.6100  -28.3010 C   0  0  0  0  0  0  0  0  0  0  0  0
   38.2200  -45.3230  -27.5970 C   0  0  1  0  0  0  0  0  0  0  0  0
   38.9130  -45.5420  -26.2590 C   0  0  1  0  0  0  0  0  0  0  0  0
   40.1660  -46.3920  -26.4190 C   0  0  2  0  0  0  0  0  0  0  0  0
   39.8220  -47.7300  -27.0970 C   0  0  1  0  0  0  0  0  0  0  0  0
   39.0780  -47.5920  -28.4600 C   0  0  1  0  0  0  0  0  0  0  0  0
   41.0630  -48.6300  -27.1640 C   0  0  1  0  0  0  0  0  0  0  0  0
   41.7350  -48.8410  -25.8000 C   0  0  2  0  0  0  0  0  0  0  0  0
   42.1140  -47.5160  -25.1390 C   0  0  1  0  0  0  0  0  0  0  0  0
   40.8190  -46.6820  -25.0760 C   0  0  1  0  0  0  0  0  0  0  0  0
   41.1810  -45.5050  -24.1820 C   0  0  2  0  0  0  0  0  0  0  0  0
   42.0890  -46.1460  -23.1180 C   0  0  1  0  0  0  0  0  0  0  0  0
   42.4890  -47.5620  -23.6280 C   0  0  2  0  0  0  0  0  0  0  0  0
   43.2180  -46.8160  -25.9430 C   0  0  1  0  0  0  0  0  0  0  0  0
   39.9870  -47.0700  -29.5880 C   0  0  1  0  0  0  0  0  0  0  0  0
   43.9150  -47.9570  -23.1950 C   0  0  2  0  0  0  0  0  0  0  0  0
   44.2970  -49.3850  -23.5920 C   0  0  2  0  0  0  0  0  0  0  0  0
   44.1130  -47.8060  -21.6760 C   0  0  2  0  0  0  0  0  0  0  0  0
   45.5600  -47.6920  -21.2010 C   0  0  2  0  0  0  0  0  0  0  0  0
   45.6210  -47.5360  -19.6840 C   0  0  2  0  0  0  0  0  0  0  0  0
   46.8810  -46.9290  -19.0570 C   0  0  1  0  0  0  0  0  0  0  0  0
   47.7250  -48.0180  -18.4040 C   0  0  2  0  0  0  0  0  0  0  0  0
   47.7390  -46.0980  -20.0040 C   0  0  1  0  0  0  0  0  0  0  0  0
   35.2180  -48.1350  -30.0320 O   0  0  0  0  0  0  0  0  0  0  0  0
   39.2420  -49.5430  -29.1270 H   0  0  0  0  0  0  0  0  0  0  0  0
   38.1030  -49.3770  -28.0810 H   0  0  0  0  0  0  0  0  0  0  0  0
   37.8870  -48.5790  -30.8070 H   0  0  0  0  0  0  0  0  0  0  0  0
   37.1150  -49.7710  -30.1750 H   0  0  0  0  0  0  0  0  0  0  0  0
   35.9910  -46.2980  -28.5000 H   0  0  0  0  0  0  0  0  0  0  0  0
   38.7710  -44.7650  -28.1670 H   0  0  0  0  0  0  0  0  0  0  0  0
   37.3890  -44.8420  -27.4630 H   0  0  0  0  0  0  0  0  0  0  0  0
   39.1360  -44.6800  -25.8750 H   0  0  0  0  0  0  0  0  0  0  0  0
   38.2920  -45.9660  -25.6470 H   0  0  0  0  0  0  0  0  0  0  0  0
   40.7890  -45.8990  -26.9760 H   0  0  0  0  0  0  0  0  0  0  0  0
   39.1810  -48.1700  -26.5170 H   0  0  0  0  0  0  0  0  0  0  0  0
   40.1880  -47.2320  -24.5860 H   0  0  0  0  0  0  0  0  0  0  0  0
   40.8310  -49.4990  -27.5280 H   0  0  0  0  0  0  0  0  0  0  0  0
   41.7180  -48.2580  -27.7740 H   0  0  0  0  0  0  0  0  0  0  0  0
   40.6220  -47.7460  -29.8690 H   0  0  0  0  0  0  0  0  0  0  0  0
   39.4680  -46.8120  -30.3660 H   0  0  0  0  0  0  0  0  0  0  0  0
   40.4920  -46.2930  -29.3010 H   0  0  0  0  0  0  0  0  0  0  0  0
   42.5320  -49.3850  -25.9050 H   0  0  0  0  0  0  0  0  0  0  0  0
   41.1420  -49.3330  -25.2110 H   0  0  0  0  0  0  0  0  0  0  0  0
   41.8920  -48.2130  -23.2270 H   0  0  0  0  0  0  0  0  0  0  0  0
   43.5270  -45.9970  -25.5240 H   0  0  0  0  0  0  0  0  0  0  0  0
   44.0060  -47.3690  -26.0610 H   0  0  0  0  0  0  0  0  0  0  0  0
   42.9320  -46.5660  -26.8360 H   0  0  0  0  0  0  0  0  0  0  0  0
   40.3910  -45.0980  -23.7940 H   0  0  0  0  0  0  0  0  0  0  0  0
   41.6340  -44.8070  -24.6800 H   0  0  0  0  0  0  0  0  0  0  0  0
   42.8820  -45.6090  -22.9630 H   0  0  0  0  0  0  0  0  0  0  0  0
   41.6350  -46.2130  -22.2630 H   0  0  0  0  0  0  0  0  0  0  0  0
   44.5000  -47.3190  -23.6330 H   0  0  0  0  0  0  0  0  0  0  0  0
   45.1980  -49.6060  -23.3080 H   0  0  0  0  0  0  0  0  0  0  0  0
   44.2600  -49.5110  -24.5520 H   0  0  0  0  0  0  0  0  0  0  0  0
   43.7020  -50.0380  -23.1920 H   0  0  0  0  0  0  0  0  0  0  0  0
   43.7090  -48.5610  -21.2190 H   0  0  0  0  0  0  0  0  0  0  0  0
   43.6350  -47.0230  -21.3620 H   0  0  0  0  0  0  0  0  0  0  0  0
   45.9950  -46.9350  -21.6230 H   0  0  0  0  0  0  0  0  0  0  0  0
   46.0660  -48.4760  -21.4680 H   0  0  0  0  0  0  0  0  0  0  0  0
   45.4830  -48.4110  -19.2880 H   0  0  0  0  0  0  0  0  0  0  0  0
   44.8620  -46.9990  -19.4090 H   0  0  0  0  0  0  0  0  0  0  0  0
   46.5640  -46.3180  -18.3730 H   0  0  0  0  0  0  0  0  0  0  0  0
   48.0990  -46.6450  -20.7190 H   0  0  0  0  0  0  0  0  0  0  0  0
   47.2220  -45.3840  -20.4080 H   0  0  0  0  0  0  0  0  0  0  0  0
   48.4860  -45.6950  -19.5340 H   0  0  0  0  0  0  0  0  0  0  0  0
   48.0070  -48.6730  -19.0610 H   0  0  0  0  0  0  0  0  0  0  0  0
   47.2180  -48.4780  -17.7160 H   0  0  0  0  0  0  0  0  0  0  0  0
   48.5170  -47.6380  -17.9940 H   0  0  0  0  0  0  0  0  0  0  0  0
  2  1  1  0
  3  2  1  0
  4  3  1  0
  5  4  1  0
  6  5  1  0
  7  6  1  0
  8  7  1  0
  9  8  1  0
 10  5  1  1
 10  1  1  0
 10  9  1  0
 11  9  1  0
 12 11  1  0
 13 12  1  0
 14 13  1  0
 14  8  1  0
 15 14  1  0
 16 15  1  0
 17 16  1  0
 13 17  1  1
 18 13  1  0
 19 10  1  0
 20 17  1  0
 21 20  1  0
 22 20  1  0
 23 22  1  0
 24 23  1  0
 25 24  1  0
 26 25  1  0
 27 25  1  0
 28  3  1  0
  1 29  1  6
 30  1  1  0
  2 31  1  6
 32  2  1  0
 33  4  1  0
  6 34  1  6
 35  6  1  0
  7 36  1  1
 37  7  1  0
  8 38  1  6
  9 39  1  1
 14 40  1  1
 11 41  1  6
 42 11  1  0
 19 43  1  6
 44 19  1  0
 45 19  1  0
 12 46  1  6
 47 12  1  0
 17 48  1  1
 18 49  1  1
 50 18  1  0
 51 18  1  0
 15 52  1  1
 53 15  1  0
 16 54  1  1
 55 16  1  0
 20 56  1  6
 21 57  1  1
 58 21  1  0
 59 21  1  0
 22 60  1  1
 61 22  1  0
 23 62  1  6
 63 23  1  0
 24 64  1  1
 65 24  1  0
 25 66  1  1
 27 67  1  6
 68 27  1  0
 69 27  1  0
 26 70  1  6
 71 26  1  0
 72 26  1  0
M  END
$$$$
