
     RDKit          3D

 22 23  0  0  0  0  0  0  0  0999 V2000
   19.2650   39.6180   82.4140 N   0  0  0  0  0  0  0  0  0  0  0  0
   19.0270   42.5700   83.8510 N   0  0  0  0  0  0  0  0  0  0  0  0
   20.1290   38.1340   80.5890 C   0  0  0  0  0  0  0  0  0  0  0  0
   20.9270   38.2480   79.4610 C   0  0  0  0  0  0  0  0  0  0  0  0
   21.6540   37.1640   79.0060 C   0  0  0  0  0  0  0  0  0  0  0  0
   21.5770   35.9520   79.6520 C   0  0  0  0  0  0  0  0  0  0  0  0
   20.7750   35.8220   80.7590 C   0  0  0  0  0  0  0  0  0  0  0  0
   18.0940   41.4690   83.5910 C   0  0  1  0  0  0  0  0  0  0  0  0
   18.5090   40.6580   82.4090 C   0  0  0  0  0  0  0  0  0  0  0  0
   19.3630   39.2810   81.0790 C   0  0  0  0  0  0  0  0  0  0  0  0
   20.0580   36.9080   81.2310 C   0  0  0  0  0  0  0  0  0  0  0  0
   18.6790   40.0470   80.2830 N   0  0  0  0  0  0  0  0  0  0  0  0
   18.0950   40.9770   81.1790 O   0  0  0  0  0  0  0  0  0  0  0  0
   19.0050   43.0790   83.1120 H   0  0  0  0  0  0  0  0  0  0  0  0
   19.8370   42.1920   83.9270 H   0  0  0  0  0  0  0  0  0  0  0  0
   20.9730   39.0680   79.0040 H   0  0  0  0  0  0  0  0  0  0  0  0
   22.2070   37.2570   78.2480 H   0  0  0  0  0  0  0  0  0  0  0  0
   22.0720   35.2140   79.3350 H   0  0  0  0  0  0  0  0  0  0  0  0
   20.7110   34.9910   81.2000 H   0  0  0  0  0  0  0  0  0  0  0  0
   18.0510   40.8950   84.3860 H   0  0  0  0  0  0  0  0  0  0  0  0
   17.1990   41.8410   83.4380 H   0  0  0  0  0  0  0  0  0  0  0  0
   19.5190   36.8140   81.9950 H   0  0  0  0  0  0  0  0  0  0  0  0
  4  3  1  0
  5  4  1  0
  6  5  1  0
  7  6  1  0
  8  2  1  0
  9  8  1  0
  9  1  1  0
 10  3  1  0
 10  1  1  0
 11  7  1  0
 11  3  1  0
 12 10  1  0
 13 12  1  0
 13  9  1  0
 14  2  1  0
 15  2  1  0
 16  4  1  0
 17  5  1  0
 18  6  1  0
 19  7  1  0
  8 20  1  1
 21  8  1  0
 22 11  1  0
M  END
$$$$
