
     RDKit          3D

 24 25  0  0  0  0  0  0  0  0999 V2000
   21.3920   -2.6700  -15.2620 C   0  0  0  0  0  0  0  0  0  0  0  0
   20.4830   -2.8610  -16.2660 C   0  0  0  0  0  0  0  0  0  0  0  0
   21.5770   -3.6390  -14.3140 C   0  0  0  0  0  0  0  0  0  0  0  0
   18.1190   -8.2200  -18.5280 C   0  0  0  0  0  0  0  0  0  0  0  0
   20.3800   -8.4090  -18.2790 C   0  0  0  0  0  0  0  0  0  0  0  0
   19.7520   -4.0360  -16.3470 C   0  0  0  0  0  0  0  0  0  0  0  0
   20.8310   -4.8070  -14.3770 C   0  0  0  0  0  0  0  0  0  0  0  0
   18.0070   -7.4410  -17.3950 C   0  0  0  0  0  0  0  0  0  0  0  0
   20.3660   -7.6380  -17.1410 C   0  0  0  0  0  0  0  0  0  0  0  0
   19.0940   -6.2950  -15.4340 C   0  0  2  0  0  0  0  0  0  0  0  0
   19.2840   -8.6940  -18.9850 N   0  0  0  0  0  0  0  0  0  0  0  0
   19.9160   -5.0250  -15.3920 C   0  0  0  0  0  0  0  0  0  0  0  0
   19.1580   -7.1300  -16.6890 C   0  0  0  0  0  0  0  0  0  0  0  0
   21.8910   -1.8700  -15.2230 H   0  0  0  0  0  0  0  0  0  0  0  0
   20.3510   -2.1850  -16.9120 H   0  0  0  0  0  0  0  0  0  0  0  0
   22.2070   -3.5140  -13.6220 H   0  0  0  0  0  0  0  0  0  0  0  0
   17.3350   -8.4300  -19.0080 H   0  0  0  0  0  0  0  0  0  0  0  0
   21.2040   -8.7550  -18.5790 H   0  0  0  0  0  0  0  0  0  0  0  0
   19.1410   -4.1650  -17.0540 H   0  0  0  0  0  0  0  0  0  0  0  0
   20.9480   -5.4690  -13.7140 H   0  0  0  0  0  0  0  0  0  0  0  0
   17.1670   -7.1240  -17.1000 H   0  0  0  0  0  0  0  0  0  0  0  0
   21.1630   -7.4530  -16.6680 H   0  0  0  0  0  0  0  0  0  0  0  0
   18.1540   -6.0480  -15.2860 H   0  0  0  0  0  0  0  0  0  0  0  0
   19.3780   -6.8610  -14.6830 H   0  0  0  0  0  0  0  0  0  0  0  0
  2  1  1  0
  3  1  1  0
  6  2  1  0
  7  3  1  0
  8  4  1  0
  9  5  1  0
 11  5  1  0
 11  4  1  0
 12 10  1  0
 12  7  1  0
 12  6  1  0
 13  9  1  0
 13  8  1  0
 13 10  1  0
 14  1  1  0
 15  2  1  0
 16  3  1  0
 17  4  1  0
 18  5  1  0
 19  6  1  0
 20  7  1  0
 21  8  1  0
 22  9  1  0
 10 23  1  1
 24 10  1  0
M  END
$$$$
