
     RDKit          3D

 36 40  0  0  0  0  0  0  0  0999 V2000
  -20.6330  -20.5620   11.5340 C   0  0  0  0  0  0  0  0  0  0  0  0
  -19.4720  -20.2330   12.0730 N   0  0  0  0  0  0  0  0  0  0  0  0
  -19.4850  -17.7440   10.1840 O   0  0  0  0  0  0  0  0  0  0  0  0
  -14.7260  -22.2260    8.2490 Cl  0  0  0  0  0  0  0  0  0  0  0  0
  -19.4650  -22.4000   11.7910 C   0  0  0  0  0  0  0  0  0  0  0  0
  -20.6820  -21.9220   11.3300 N   0  0  0  0  0  0  0  0  0  0  0  0
  -17.8020  -17.0590   11.4500 O   0  0  0  0  0  0  0  0  0  0  0  0
  -15.4550  -18.5980   12.1310 Cl  0  0  0  0  0  0  0  0  0  0  0  0
  -18.7190  -21.3630   12.2400 C   0  0  0  0  0  0  0  0  0  0  0  0
  -18.6580   -8.8170   12.8560 N   0  0  0  0  0  0  0  0  0  0  0  0
  -17.8380  -14.2880   11.4140 O   0  0  0  0  0  0  0  0  0  0  0  0
  -18.9920  -18.9090   12.4260 C   0  0  0  0  0  0  0  0  0  0  0  0
  -19.0990   -6.2100   13.9420 N   0  0  0  0  0  0  0  0  0  0  0  0
  -20.7100   -4.5300   13.9690 O   0  0  0  0  0  0  0  0  0  0  0  0
  -18.4810  -18.2920   11.0620 C   0  0  1  0  0  0  0  0  0  0  0  0
  -18.8790  -16.3860    9.8680 C   0  0  2  0  0  0  0  0  0  0  0  0
  -17.5100  -16.4350   10.2780 C   0  0  0  0  0  0  0  0  0  0  0  0
  -17.5290  -19.2690   10.3480 C   0  0  0  0  0  0  0  0  0  0  0  0
  -16.1680  -19.4970   10.7380 C   0  0  0  0  0  0  0  0  0  0  0  0
  -15.2900  -20.3700   10.1440 C   0  0  0  0  0  0  0  0  0  0  0  0
  -15.7890  -21.0840    9.0750 C   0  0  0  0  0  0  0  0  0  0  0  0
  -17.0970  -20.9230    8.6440 C   0  0  0  0  0  0  0  0  0  0  0  0
  -17.9830  -20.0420    9.2340 C   0  0  0  0  0  0  0  0  0  0  0  0
  -18.9700  -15.0970   10.8360 C   0  0  0  0  0  0  0  0  0  0  0  0
  -17.9720  -12.9520   11.7640 C   0  0  0  0  0  0  0  0  0  0  0  0
  -16.9020  -12.0490   11.8800 C   0  0  0  0  0  0  0  0  0  0  0  0
  -17.0950  -10.6830   12.2400 C   0  0  0  0  0  0  0  0  0  0  0  0
  -18.3830  -10.1810   12.4970 C   0  0  0  0  0  0  0  0  0  0  0  0
  -19.4300  -11.0660   12.3810 C   0  0  0  0  0  0  0  0  0  0  0  0
  -19.2230  -12.4020   12.0270 C   0  0  0  0  0  0  0  0  0  0  0  0
  -17.5600   -7.8800   12.8600 C   0  0  0  0  0  0  0  0  0  0  0  0
  -17.7280   -6.7250   13.8180 C   0  0  0  0  0  0  0  0  0  0  0  0
  -20.0250   -7.2820   14.2260 C   0  0  0  0  0  0  0  0  0  0  0  0
  -20.0080   -8.3900   13.1680 C   0  0  0  0  0  0  0  0  0  0  0  0
  -19.5110   -4.9250   13.8390 C   0  0  0  0  0  0  0  0  0  0  0  0
  -18.4150   -3.9600   13.5520 C   0  0  0  0  0  0  0  0  0  0  0  0
  2  1  1  0
  6  5  1  0
  6  1  1  0
  9  5  1  0
  9  2  1  0
 12  2  1  0
 15  3  1  0
 15 12  1  1
 15  7  1  0
 16  3  1  0
 17 16  1  0
 17  7  1  0
 18 15  1  0
 19 18  1  0
 19  8  1  0
 20 19  1  0
 21  4  1  0
 21 20  1  0
 22 21  1  0
 23 22  1  0
 23 18  1  0
 16 24  1  1
 24 11  1  0
 25 11  1  0
 26 25  1  0
 27 26  1  0
 28 27  1  0
 28 10  1  0
 29 28  1  0
 30 29  1  0
 30 25  1  0
 31 10  1  0
 32 31  1  0
 32 13  1  0
 33 13  1  0
 34 33  1  0
 34 10  1  0
 35 13  1  0
 35 14  1  0
 36 35  1  0
M  END
$$$$
