
     RDKit          3D

 34 36  0  0  0  0  0  0  0  0999 V2000
   27.9600    3.7850   51.9140 C   0  0  1  0  0  0  0  0  0  0  0  0
   28.5750    5.1050   52.3720 C   0  0  1  0  0  0  0  0  0  0  0  0
   27.7010    5.2880   54.5350 C   0  0  0  0  0  0  0  0  0  0  0  0
   27.8980    5.7900   55.9640 C   0  0  0  0  0  0  0  0  0  0  0  0
   27.1680    5.4160   57.0920 C   0  0  0  0  0  0  0  0  0  0  0  0
   27.7140    6.1520   58.1830 C   0  0  0  0  0  0  0  0  0  0  0  0
   27.4320    6.2280   59.5740 C   0  0  0  0  0  0  0  0  0  0  0  0
   28.1740    7.0790   60.3940 C   0  0  0  0  0  0  0  0  0  0  0  0
   27.9060    7.1580   61.7570 C   0  0  0  0  0  0  0  0  0  0  0  0
   28.8980    7.5500   62.6430 C   0  0  0  0  0  0  0  0  0  0  0  0
   28.5900    7.6100   63.9940 C   0  0  0  0  0  0  0  0  0  0  0  0
   26.4270    6.9260   63.6140 C   0  0  0  0  0  0  0  0  0  0  0  0
   26.6490    6.8390   62.2490 C   0  0  0  0  0  0  0  0  0  0  0  0
   29.2010    7.8490   59.8430 C   0  0  0  0  0  0  0  0  0  0  0  0
   29.4800    7.7740   58.4840 C   0  0  0  0  0  0  0  0  0  0  0  0
   28.7220    6.9100   57.6490 C   0  0  0  0  0  0  0  0  0  0  0  0
   27.3850    7.3010   64.4410 N   0  0  0  0  0  0  0  0  0  0  0  0
   28.8170    6.6760   56.3140 N   0  0  0  0  0  0  0  0  0  0  0  0
   28.8220    5.0200   53.7450 O   0  0  0  0  0  0  0  0  0  0  0  0
   26.6130    5.1460   54.0860 O   0  0  0  0  0  0  0  0  0  0  0  0
   27.9990    3.7300   50.9770 H   0  0  0  0  0  0  0  0  0  0  0  0
   28.4370    3.0700   52.2900 H   0  0  0  0  0  0  0  0  0  0  0  0
   27.0640    3.7440   52.1920 H   0  0  0  0  0  0  0  0  0  0  0  0
   29.3810    5.2550   51.9140 H   0  0  0  0  0  0  0  0  0  0  0  0
   27.9780    5.8090   52.2010 H   0  0  0  0  0  0  0  0  0  0  0  0
   26.4670    4.8080   57.1260 H   0  0  0  0  0  0  0  0  0  0  0  0
   26.7530    5.7100   59.9380 H   0  0  0  0  0  0  0  0  0  0  0  0
   29.7490    7.7660   62.3390 H   0  0  0  0  0  0  0  0  0  0  0  0
   29.2440    7.8740   64.5980 H   0  0  0  0  0  0  0  0  0  0  0  0
   25.5890    6.7150   63.9540 H   0  0  0  0  0  0  0  0  0  0  0  0
   25.9690    6.5730   61.6740 H   0  0  0  0  0  0  0  0  0  0  0  0
   29.6990    8.4130   60.3880 H   0  0  0  0  0  0  0  0  0  0  0  0
   30.1630    8.2890   58.1220 H   0  0  0  0  0  0  0  0  0  0  0  0
   29.3880    7.0480   55.7770 H   0  0  0  0  0  0  0  0  0  0  0  0
  2  1  1  0
  4  3  1  0
  5  4  1  0
  6  5  1  0
  7  6  1  0
  8  7  1  0
  9  8  1  0
 10  9  1  0
 11 10  1  0
 13 12  1  0
 13  9  1  0
 14  8  1  0
 15 14  1  0
 16 15  1  0
 16  6  1  0
 17 12  1  0
 17 11  1  0
 18 16  1  0
 18  4  1  0
 19  2  1  0
 19  3  1  0
 20  3  1  0
  1 21  1  6
 22  1  1  0
 23  1  1  0
  2 24  1  6
 25  2  1  0
 26  5  1  0
 27  7  1  0
 28 10  1  0
 29 11  1  0
 30 12  1  0
 31 13  1  0
 32 14  1  0
 33 15  1  0
 34 18  1  0
M  END
$$$$
