
     RDKit          3D

 45 48  0  0  0  0  0  0  0  0999 V2000
   13.1890    5.8370   63.7310 C   0  0  0  0  0  0  0  0  0  0  0  0
   14.5540    6.0040   63.8010 C   0  0  0  0  0  0  0  0  0  0  0  0
   15.3100    5.1450   64.5660 C   0  0  2  0  0  0  0  0  0  0  0  0
   16.7950    5.2200   64.5830 C   0  0  2  0  0  0  0  0  0  0  0  0
   17.4790    5.9660   63.6040 C   0  0  0  0  0  0  0  0  0  0  0  0
   18.8680    5.9910   63.5460 C   0  0  0  0  0  0  0  0  0  0  0  0
   18.9070    4.3750   65.3990 C   0  0  0  0  0  0  0  0  0  0  0  0
   21.9960    5.6190   63.8560 C   0  0  2  0  0  0  0  0  0  0  0  0
   23.2110    6.0060   64.6810 C   0  0  1  0  0  0  0  0  0  0  0  0
   24.8750    7.7620   65.0630 C   0  0  1  0  0  0  0  0  0  0  0  0
   26.0480    6.8510   65.4050 C   0  0  1  0  0  0  0  0  0  0  0  0
   25.8880    5.8060   63.2590 C   0  0  2  0  0  0  0  0  0  0  0  0
   24.7180    6.7050   62.8940 C   0  0  1  0  0  0  0  0  0  0  0  0
   21.1220    4.0890   65.6860 C   0  0  0  0  0  0  0  0  0  0  0  0
   17.5150    4.3950   65.4460 C   0  0  0  0  0  0  0  0  0  0  0  0
   14.6370    4.1340   65.2290 C   0  0  0  0  0  0  0  0  0  0  0  0
   13.2590    4.0360   65.1100 C   0  0  0  0  0  0  0  0  0  0  0  0
   19.5730    5.1760   64.4440 C   0  0  0  0  0  0  0  0  0  0  0  0
   19.9130    3.6980   66.1640 C   0  0  0  0  0  0  0  0  0  0  0  0
   20.9300    4.9840   64.6330 N   0  0  0  0  0  0  0  0  0  0  0  0
   23.9640    7.1220   64.0890 N   0  0  0  0  0  0  0  0  0  0  0  0
   26.7910    6.4920   64.1910 N   0  0  0  0  0  0  0  0  0  0  0  0
   12.5430    4.8640   64.3600 N   0  0  0  0  0  0  0  0  0  0  0  0
   12.6950    6.4440   63.2210 H   0  0  0  0  0  0  0  0  0  0  0  0
   14.9660    6.6950   63.3040 H   0  0  0  0  0  0  0  0  0  0  0  0
   16.9880    6.5010   62.9950 H   0  0  0  0  0  0  0  0  0  0  0  0
   19.3170    6.5140   62.9080 H   0  0  0  0  0  0  0  0  0  0  0  0
   22.2700    5.0030   63.1520 H   0  0  0  0  0  0  0  0  0  0  0  0
   21.6320    6.4170   63.4300 H   0  0  0  0  0  0  0  0  0  0  0  0
   22.9080    6.2510   65.5650 H   0  0  0  0  0  0  0  0  0  0  0  0
   23.7790    5.2300   64.7660 H   0  0  0  0  0  0  0  0  0  0  0  0
   24.3770    7.9770   65.8820 H   0  0  0  0  0  0  0  0  0  0  0  0
   25.2160    8.6000   64.6850 H   0  0  0  0  0  0  0  0  0  0  0  0
   26.6560    7.3160   66.0420 H   0  0  0  0  0  0  0  0  0  0  0  0
   25.7110    6.0240   65.8460 H   0  0  0  0  0  0  0  0  0  0  0  0
   26.3880    5.5610   62.4330 H   0  0  0  0  0  0  0  0  0  0  0  0
   25.5520    4.9670   63.6760 H   0  0  0  0  0  0  0  0  0  0  0  0
   25.0530    7.5020   62.4280 H   0  0  0  0  0  0  0  0  0  0  0  0
   24.1180    6.2260   62.2820 H   0  0  0  0  0  0  0  0  0  0  0  0
   21.9510    3.8050   65.9930 H   0  0  0  0  0  0  0  0  0  0  0  0
   17.0640    3.8620   66.0760 H   0  0  0  0  0  0  0  0  0  0  0  0
   15.1070    3.4950   65.7420 H   0  0  0  0  0  0  0  0  0  0  0  0
   12.8100    3.3490   65.5760 H   0  0  0  0  0  0  0  0  0  0  0  0
   19.7620    3.1040   66.8740 H   0  0  0  0  0  0  0  0  0  0  0  0
   27.1000    7.2350   63.8140 H   0  0  0  0  0  0  0  0  0  0  0  0
  2  1  1  0
  3  2  1  6
  4  3  1  0
  4  5  1  6
  6  5  1  0
  9  8  1  0
 11 10  1  0
 13 12  1  0
 15  7  1  0
 15  4  1  0
 16  3  1  0
 17 16  1  0
 18  7  1  0
 18  6  1  0
 19  7  1  0
 19 14  1  0
 20 18  1  0
 20 14  1  0
 20  8  1  0
 21 13  1  0
 21 10  1  0
 21  9  1  0
 22 12  1  0
 22 11  1  0
 23 17  1  0
 23  1  1  0
 24  1  1  0
 25  2  1  0
 26  5  1  0
 27  6  1  0
  8 28  1  6
 29  8  1  0
  9 30  1  1
 31  9  1  0
 10 32  1  1
 33 10  1  0
 11 34  1  1
 35 11  1  0
 12 36  1  6
 37 12  1  0
 13 38  1  6
 39 13  1  0
 40 14  1  0
 41 15  1  0
 42 16  1  0
 43 17  1  0
 44 19  1  0
 45 22  1  0
M  END
$$$$
