
     RDKit          3D

 47 49  0  0  0  0  0  0  0  0999 V2000
   20.1360    5.9820   59.7950 C   0  0  1  0  0  0  0  0  0  0  0  0
   22.0250    6.9820   58.3790 C   0  0  2  0  0  0  0  0  0  0  0  0
   23.0600    5.8360   58.2380 C   0  0  1  0  0  0  0  0  0  0  0  0
   23.2340    5.6440   56.0520 C   0  0  2  0  0  0  0  0  0  0  0  0
   24.1010    5.7680   54.7940 C   0  0  1  0  0  0  0  0  0  0  0  0
   25.9240    5.3160   56.1420 C   0  0  1  0  0  0  0  0  0  0  0  0
   25.0650    5.4260   57.4050 C   0  0  2  0  0  0  0  0  0  0  0  0
   19.3330    5.9490   61.1090 C   0  0  0  0  0  0  0  0  0  0  0  0
   19.6420    6.8110   62.1470 C   0  0  0  0  0  0  0  0  0  0  0  0
   18.9230    6.7600   63.3340 C   0  0  0  0  0  0  0  0  0  0  0  0
   17.9000    5.8360   63.4840 C   0  0  0  0  0  0  0  0  0  0  0  0
   17.1470    5.7890   64.8100 C   0  0  2  0  0  0  0  0  0  0  0  0
   15.6880    5.4280   64.6650 C   0  0  0  0  0  0  0  0  0  0  0  0
   15.1580    4.3330   65.3260 C   0  0  0  0  0  0  0  0  0  0  0  0
   13.8100    4.0610   65.1670 C   0  0  0  0  0  0  0  0  0  0  0  0
   13.5360    5.8820   63.7730 C   0  0  0  0  0  0  0  0  0  0  0  0
   14.8630    6.2140   63.8870 C   0  0  0  0  0  0  0  0  0  0  0  0
   17.5910    4.9670   62.4500 C   0  0  0  0  0  0  0  0  0  0  0  0
   18.3120    5.0180   61.2660 C   0  0  0  0  0  0  0  0  0  0  0  0
   21.2320    6.9400   59.6150 N   0  0  0  0  0  0  0  0  0  0  0  0
   23.8390    6.0420   57.2280 N   0  0  0  0  0  0  0  0  0  0  0  0
   13.0550    4.8210   64.4000 N   0  0  0  0  0  0  0  0  0  0  0  0
   19.9000    5.1830   58.9460 O   0  0  0  0  0  0  0  0  0  0  0  0
   25.4260    6.0000   55.0590 O   0  0  0  0  0  0  0  0  0  0  0  0
   21.4350    6.9360   57.6500 H   0  0  0  0  0  0  0  0  0  0  0  0
   22.4860    7.7990   58.3540 H   0  0  0  0  0  0  0  0  0  0  0  0
   23.5770    5.7890   59.0210 H   0  0  0  0  0  0  0  0  0  0  0  0
   22.6060    5.0230   58.1170 H   0  0  0  0  0  0  0  0  0  0  0  0
   22.9830    4.7440   56.1450 H   0  0  0  0  0  0  0  0  0  0  0  0
   22.4650    6.1680   55.9290 H   0  0  0  0  0  0  0  0  0  0  0  0
   24.0310    4.9700   54.3040 H   0  0  0  0  0  0  0  0  0  0  0  0
   23.7720    6.4790   54.2750 H   0  0  0  0  0  0  0  0  0  0  0  0
   26.7780    5.6540   56.3370 H   0  0  0  0  0  0  0  0  0  0  0  0
   25.9940    4.4090   55.9110 H   0  0  0  0  0  0  0  0  0  0  0  0
   25.5480    5.9150   58.0450 H   0  0  0  0  0  0  0  0  0  0  0  0
   24.9110    4.5580   57.7300 H   0  0  0  0  0  0  0  0  0  0  0  0
   20.3320    7.4250   62.0490 H   0  0  0  0  0  0  0  0  0  0  0  0
   19.1280    7.3430   64.0270 H   0  0  0  0  0  0  0  0  0  0  0  0
   17.2050    6.6350   65.2140 H   0  0  0  0  0  0  0  0  0  0  0  0
   17.5580    5.1500   65.3620 H   0  0  0  0  0  0  0  0  0  0  0  0
   15.6940    3.7940   65.8620 H   0  0  0  0  0  0  0  0  0  0  0  0
   13.4340    3.3350   65.6070 H   0  0  0  0  0  0  0  0  0  0  0  0
   12.9720    6.4060   63.2520 H   0  0  0  0  0  0  0  0  0  0  0  0
   15.2010    6.9580   63.4450 H   0  0  0  0  0  0  0  0  0  0  0  0
   16.9020    4.3520   62.5500 H   0  0  0  0  0  0  0  0  0  0  0  0
   18.1120    4.4290   60.5760 H   0  0  0  0  0  0  0  0  0  0  0  0
   21.4160    7.4960   60.2550 H   0  0  0  0  0  0  0  0  0  0  0  0
  3  2  1  0
  5  4  1  0
  7  6  1  0
  8  1  1  0
  9  8  1  0
 10  9  1  0
 11 10  1  0
 12 11  1  0
 13 12  1  0
 14 13  1  0
 15 14  1  0
 17 13  1  0
 17 16  1  0
 18 11  1  0
 19 18  1  0
 19  8  1  0
 20  1  1  0
 20  2  1  0
 21  7  1  0
 21  4  1  0
 21  3  1  0
 22 15  1  0
 22 16  1  0
  1 23  1  1
 24  6  1  0
 24  5  1  0
  2 25  1  6
 26  2  1  0
  3 27  1  1
 28  3  1  0
  4 29  1  1
 30  4  1  0
  5 31  1  6
 32  5  1  0
  6 33  1  1
 34  6  1  0
  7 35  1  1
 36  7  1  0
 37  9  1  0
 38 10  1  0
 12 39  1  1
 40 12  1  0
 41 14  1  0
 42 15  1  0
 43 16  1  0
 44 17  1  0
 45 18  1  0
 46 19  1  0
 47 20  1  0
M  END
$$$$
