
     RDKit          3D

 53 56  0  0  0  0  0  0  0  0999 V2000
   24.3370    6.3070   55.6370 C   0  0  2  0  0  0  0  0  0  0  0  0
   23.9700    5.3150   56.7280 C   0  0  2  0  0  0  0  0  0  0  0  0
   23.1220    6.0160   58.8140 C   0  0  0  0  0  0  0  0  0  0  0  0
   21.9670    6.1030   59.8180 C   0  0  0  0  0  0  0  0  0  0  0  0
   20.6430    5.6920   59.6140 C   0  0  0  0  0  0  0  0  0  0  0  0
   19.9320    5.9430   60.8210 C   0  0  0  0  0  0  0  0  0  0  0  0
   18.5800    5.7600   61.2500 C   0  0  0  0  0  0  0  0  0  0  0  0
   18.2080    6.1170   62.5520 C   0  0  0  0  0  0  0  0  0  0  0  0
   16.9010    5.9660   63.0360 C   0  0  0  0  0  0  0  0  0  0  0  0
   16.6800    5.7840   64.3880 C   0  0  0  0  0  0  0  0  0  0  0  0
   15.3810    5.6360   64.8420 C   0  0  0  0  0  0  0  0  0  0  0  0
   14.5440    5.8330   62.7290 C   0  0  0  0  0  0  0  0  0  0  0  0
   15.8190    5.9930   62.1800 C   0  0  0  0  0  0  0  0  0  0  0  0
   19.1500    6.6580   63.4180 C   0  0  0  0  0  0  0  0  0  0  0  0
   20.4650    6.8360   63.0080 C   0  0  0  0  0  0  0  0  0  0  0  0
   20.8480    6.4720   61.6930 C   0  0  0  0  0  0  0  0  0  0  0  0
   23.2480    7.0880   61.7240 C   0  0  1  0  0  0  0  0  0  0  0  0
   24.2120    6.0610   62.2980 C   0  0  2  0  0  0  0  0  0  0  0  0
   25.7520    5.7530   63.8770 C   0  0  1  0  0  0  0  0  0  0  0  0
   27.0690    6.2260   64.5070 C   0  0  1  0  0  0  0  0  0  0  0  0
   27.4080    7.3400   62.5130 C   0  0  2  0  0  0  0  0  0  0  0  0
   25.9020    7.5230   62.3170 C   0  0  2  0  0  0  0  0  0  0  0  0
   14.3310    5.6780   64.0320 N   0  0  0  0  0  0  0  0  0  0  0  0
   22.0560    6.5420   61.0670 N   0  0  0  0  0  0  0  0  0  0  0  0
   25.0980    6.6380   63.0280 N   0  0  0  0  0  0  0  0  0  0  0  0
   22.8770    5.8260   57.4500 O   0  0  0  0  0  0  0  0  0  0  0  0
   24.2450    6.1330   59.1960 O   0  0  0  0  0  0  0  0  0  0  0  0
   27.7210    7.2740   63.8580 O   0  0  0  0  0  0  0  0  0  0  0  0
   24.6780    5.8430   54.8950 H   0  0  0  0  0  0  0  0  0  0  0  0
   24.9880    6.9010   55.9610 H   0  0  0  0  0  0  0  0  0  0  0  0
   23.5720    6.7880   55.3820 H   0  0  0  0  0  0  0  0  0  0  0  0
   24.7010    5.1970   57.3060 H   0  0  0  0  0  0  0  0  0  0  0  0
   23.7370    4.4930   56.3410 H   0  0  0  0  0  0  0  0  0  0  0  0
   20.2950    5.3230   58.8360 H   0  0  0  0  0  0  0  0  0  0  0  0
   17.9500    5.4050   60.6670 H   0  0  0  0  0  0  0  0  0  0  0  0
   17.3930    5.7610   64.9830 H   0  0  0  0  0  0  0  0  0  0  0  0
   15.2390    5.5010   65.7500 H   0  0  0  0  0  0  0  0  0  0  0  0
   13.8120    5.8340   62.1570 H   0  0  0  0  0  0  0  0  0  0  0  0
   15.9340    6.1140   61.2660 H   0  0  0  0  0  0  0  0  0  0  0  0
   18.8980    6.9020   64.2780 H   0  0  0  0  0  0  0  0  0  0  0  0
   21.0910    7.1940   63.5940 H   0  0  0  0  0  0  0  0  0  0  0  0
   22.9530    7.6600   62.4510 H   0  0  0  0  0  0  0  0  0  0  0  0
   23.7310    7.6210   61.0730 H   0  0  0  0  0  0  0  0  0  0  0  0
   24.6510    5.5930   61.5700 H   0  0  0  0  0  0  0  0  0  0  0  0
   23.7170    5.4240   62.8370 H   0  0  0  0  0  0  0  0  0  0  0  0
   25.9430    4.9490   63.3710 H   0  0  0  0  0  0  0  0  0  0  0  0
   25.1430    5.5390   64.6010 H   0  0  0  0  0  0  0  0  0  0  0  0
   26.8790    6.5120   65.4140 H   0  0  0  0  0  0  0  0  0  0  0  0
   27.6750    5.4690   64.5310 H   0  0  0  0  0  0  0  0  0  0  0  0
   27.8760    8.0890   62.1120 H   0  0  0  0  0  0  0  0  0  0  0  0
   27.6890    6.5190   62.0790 H   0  0  0  0  0  0  0  0  0  0  0  0
   25.7060    7.4150   61.3730 H   0  0  0  0  0  0  0  0  0  0  0  0
   25.6700    8.4250   62.5900 H   0  0  0  0  0  0  0  0  0  0  0  0
  2  1  1  0
  4  3  1  0
  5  4  1  0
  6  5  1  0
  7  6  1  0
  8  7  1  0
  9  8  1  0
 10  9  1  0
 11 10  1  0
 13 12  1  0
 13  9  1  0
 14  8  1  0
 15 14  1  0
 16 15  1  0
 16  6  1  0
 18 17  1  0
 20 19  1  0
 22 21  1  0
 23 12  1  0
 23 11  1  0
 24 16  1  0
 24  4  1  0
 24 17  1  0
 25 22  1  0
 25 19  1  0
 25 18  1  0
 26  2  1  0
 26  3  1  0
 27  3  1  0
 28 20  1  0
 28 21  1  0
  1 29  1  6
 30  1  1  0
 31  1  1  0
  2 32  1  1
 33  2  1  0
 34  5  1  0
 35  7  1  0
 36 10  1  0
 37 11  1  0
 38 12  1  0
 39 13  1  0
 40 14  1  0
 41 15  1  0
 17 42  1  1
 43 17  1  0
 18 44  1  6
 45 18  1  0
 19 46  1  6
 47 19  1  0
 20 48  1  1
 49 20  1  0
 21 50  1  6
 51 21  1  0
 22 52  1  6
 53 22  1  0
M  END
$$$$
