
     RDKit          3D

 27 28  0  0  0  0  0  0  0  0999 V2000
   20.5390    7.5320   60.6860 C   0  0  2  0  0  0  0  0  0  0  0  0
   20.3770    6.2570   62.6340 C   0  0  0  0  0  0  0  0  0  0  0  0
   19.5670    5.6050   63.7440 C   0  0  0  0  0  0  0  0  0  0  0  0
   20.1860    5.0110   64.8300 C   0  0  0  0  0  0  0  0  0  0  0  0
   19.4120    4.4310   65.8230 C   0  0  0  0  0  0  0  0  0  0  0  0
   18.0280    4.4490   65.7300 C   0  0  0  0  0  0  0  0  0  0  0  0
   17.4110    5.0530   64.6440 C   0  0  0  0  0  0  0  0  0  0  0  0
   16.0290    5.0720   64.5180 C   0  0  0  0  0  0  0  0  0  0  0  0
   15.4040    6.0070   63.7060 C   0  0  0  0  0  0  0  0  0  0  0  0
   14.0220    5.9730   63.6050 C   0  0  0  0  0  0  0  0  0  0  0  0
   13.8840    4.1730   65.0290 C   0  0  0  0  0  0  0  0  0  0  0  0
   15.2570    4.1420   65.1960 C   0  0  0  0  0  0  0  0  0  0  0  0
   18.1880    5.6220   63.6520 C   0  0  0  0  0  0  0  0  0  0  0  0
   13.3070    5.0740   64.2590 N   0  0  0  0  0  0  0  0  0  0  0  0
   19.6970    6.8500   61.5680 O   0  0  0  0  0  0  0  0  0  0  0  0
   21.5610    6.2710   62.6780 O   0  0  0  0  0  0  0  0  0  0  0  0
   21.1500    6.9280   60.3060 H   0  0  0  0  0  0  0  0  0  0  0  0
   21.0070    8.1990   61.1520 H   0  0  0  0  0  0  0  0  0  0  0  0
   20.0260    7.9270   60.0060 H   0  0  0  0  0  0  0  0  0  0  0  0
   21.1130    5.0020   64.8930 H   0  0  0  0  0  0  0  0  0  0  0  0
   19.8220    4.0290   66.5530 H   0  0  0  0  0  0  0  0  0  0  0  0
   17.5140    4.0550   66.3960 H   0  0  0  0  0  0  0  0  0  0  0  0
   15.9000    6.6410   63.2420 H   0  0  0  0  0  0  0  0  0  0  0  0
   13.5900    6.5950   63.0670 H   0  0  0  0  0  0  0  0  0  0  0  0
   13.3580    3.5460   65.4690 H   0  0  0  0  0  0  0  0  0  0  0  0
   15.6540    3.5110   65.7510 H   0  0  0  0  0  0  0  0  0  0  0  0
   17.7800    6.0190   62.9170 H   0  0  0  0  0  0  0  0  0  0  0  0
  3  2  1  0
  4  3  1  0
  5  4  1  0
  6  5  1  0
  7  6  1  0
  8  7  1  0
  9  8  1  0
 10  9  1  0
 12 11  1  0
 12  8  1  0
 13  7  1  0
 13  3  1  0
 14 11  1  0
 14 10  1  0
 15  2  1  0
 15  1  1  0
 16  2  1  0
  1 17  1  6
 18  1  1  0
 19  1  1  0
 20  4  1  0
 21  5  1  0
 22  6  1  0
 23  9  1  0
 24 10  1  0
 25 11  1  0
 26 12  1  0
 27 13  1  0
M  END
$$$$
