
     RDKit          3D

 28 31  0  0  0  0  0  0  0  0999 V2000
   23.3840    5.8610   59.1160 C   0  0  0  0  0  0  0  0  0  0  0  0
   23.1530    5.8240   57.6060 C   0  0  0  0  0  0  0  0  0  0  0  0
   24.4590    5.8860   56.8170 C   0  0  0  0  0  0  0  0  0  0  0  0
   24.2190    5.9420   55.3090 C   0  0  0  0  0  0  0  0  0  0  0  0
   22.1850    5.9950   60.0530 C   0  0  0  0  0  0  0  0  0  0  0  0
   20.9010    5.5710   59.7530 C   0  0  0  0  0  0  0  0  0  0  0  0
   20.0780    5.8720   60.8570 C   0  0  0  0  0  0  0  0  0  0  0  0
   18.7040    5.6800   61.1430 C   0  0  0  0  0  0  0  0  0  0  0  0
   18.2010    6.1080   62.3670 C   0  0  0  0  0  0  0  0  0  0  0  0
   16.7350    5.9400   62.7300 C   0  0  0  0  0  0  0  0  0  0  0  0
   16.3860    5.7450   64.0570 C   0  0  0  0  0  0  0  0  0  0  0  0
   15.0440    5.6090   64.3610 C   0  0  0  0  0  0  0  0  0  0  0  0
   14.4370    5.8580   62.1520 C   0  0  0  0  0  0  0  0  0  0  0  0
   15.7540    5.9970   61.7540 C   0  0  0  0  0  0  0  0  0  0  0  0
   19.0300    6.7240   63.3040 C   0  0  0  0  0  0  0  0  0  0  0  0
   20.3710    6.9100   63.0230 C   0  0  0  0  0  0  0  0  0  0  0  0
   20.8930    6.4740   61.7810 C   0  0  0  0  0  0  0  0  0  0  0  0
   23.2810    7.1270   61.9990 C   0  0  0  0  0  0  0  0  0  0  0  0
   23.7140    6.2550   63.1780 C   0  0  0  0  0  0  0  0  0  0  0  0
   24.7510    6.9630   64.0530 C   0  0  2  0  0  0  0  0  0  0  0  0
   25.6860    5.9570   64.6110 C   0  0  0  0  0  0  0  0  0  0  0  0
   26.6980    6.6090   65.5480 C   0  0  0  0  0  0  0  0  0  0  0  0
   25.0530    8.3610   66.0940 C   0  0  0  0  0  0  0  0  0  0  0  0
   24.0610    7.7270   65.1210 C   0  0  0  0  0  0  0  0  0  0  0  0
   14.1240    5.6670   63.4170 N   0  0  0  0  0  0  0  0  0  0  0  0
   22.1600    6.5400   61.2750 N   0  0  0  0  0  0  0  0  0  0  0  0
   26.0300    7.3790   66.6220 N   0  0  0  0  0  0  0  0  0  0  0  0
   24.4860    5.8010   59.5420 O   0  0  0  0  0  0  0  0  0  0  0  0
  2  1  1  0
  3  2  1  0
  4  3  1  0
  5  1  1  0
  6  5  1  0
  7  6  1  0
  8  7  1  0
  9  8  1  0
 10  9  1  0
 11 10  1  0
 12 11  1  0
 14 13  1  0
 14 10  1  0
 15  9  1  0
 16 15  1  0
 17 16  1  0
 17  7  1  0
 19 18  1  0
 20 19  1  1
 21 20  1  0
 22 21  1  0
 24 20  1  0
 24 23  1  0
 25 13  1  0
 25 12  1  0
 26 17  1  0
 26 18  1  0
 26  5  1  0
 27 23  1  0
 27 22  1  0
 28  1  1  0
M  END
$$$$
