
     RDKit          3D

 22 21  0  0  0  0  0  0  0  0999 V2000
   -1.3730    8.7620  -15.8010 O   0  0  0  0  0  0  0  0  0  0  0  0
   -1.9290    8.9120  -14.6650 C   0  0  0  0  0  0  0  0  0  0  0  0
   -1.4060    9.6840  -13.8180 O   0  0  0  0  0  0  0  0  0  0  0  0
   -3.2170    8.1370  -14.2780 C   0  0  0  0  0  0  0  0  0  0  0  0
   -4.5280    8.9400  -13.9680 C   0  0  2  0  0  0  0  0  0  0  0  0
   -4.3020   10.1250  -13.0170 C   0  0  0  0  0  0  0  0  0  0  0  0
   -5.7450    8.0710  -13.5090 C   0  0  0  0  0  0  0  0  0  0  0  0
   -6.3750    8.3960  -12.1150 C   0  0  0  0  0  0  0  0  0  0  0  0
   -7.8640    8.0520  -11.8540 C   0  0  0  0  0  0  0  0  0  0  0  0
   -8.1210    6.8450  -10.9210 C   0  0  1  0  0  0  0  0  0  0  0  0
   -7.9950    7.1820   -9.4310 C   0  0  0  0  0  0  0  0  0  0  0  0
   -9.4760    6.1870  -11.2390 C   0  0  0  0  0  0  0  0  0  0  0  0
   -9.8180    4.8440  -10.5540 C   0  0  0  0  0  0  0  0  0  0  0  0
  -10.7170    3.9300  -11.4310 C   0  0  0  0  0  0  0  0  0  0  0  0
  -11.9700    3.2780  -10.8110 C   0  0  1  0  0  0  0  0  0  0  0  0
  -12.6880    4.1980   -9.8490 C   0  0  0  0  0  0  0  0  0  0  0  0
  -13.0710    2.9420  -11.8250 C   0  0  0  0  0  0  0  0  0  0  0  0
  -12.7280    2.4100  -13.2160 C   0  0  0  0  0  0  0  0  0  0  0  0
  -13.9370    1.6670  -13.7850 C   0  0  0  0  0  0  0  0  0  0  0  0
  -13.7800    1.3030  -15.2420 C   0  0  2  0  0  0  0  0  0  0  0  0
  -14.0590    2.4960  -16.1460 C   0  0  0  0  0  0  0  0  0  0  0  0
  -14.5970    0.0680  -15.6240 C   0  0  0  0  0  0  0  0  0  0  0  0
  2  1  1  0
  3  2  1  0
  4  2  1  0
  5  4  1  0
  5  6  1  1
  7  5  1  0
  8  7  1  0
  9  8  1  0
 10  9  1  0
 10 11  1  1
 12 10  1  0
 13 12  1  0
 14 13  1  0
 15 14  1  0
 15 16  1  1
 17 15  1  0
 18 17  1  0
 19 18  1  0
 20 19  1  0
 20 21  1  6
 22 20  1  0
M  END
$$$$
