
     RDKit          3D

 28 31  0  0  0  0  0  0  0  0999 V2000
   18.4920   58.2000   10.2330 C   0  0  0  0  0  0  0  0  0  0  0  0
   17.8730   59.1800    9.1980 C   0  0  0  0  0  0  0  0  0  0  0  0
   18.8990   60.2360    8.8480 C   0  0  0  0  0  0  0  0  0  0  0  0
   20.3260   59.8430    8.7820 C   0  0  0  0  0  0  0  0  0  0  0  0
   20.7240   58.5710    9.0880 C   0  0  0  0  0  0  0  0  0  0  0  0
   22.1440   58.1570    8.8080 C   0  0  0  0  0  0  0  0  0  0  0  0
   22.7830   57.5840   10.0890 C   0  0  0  0  0  0  0  0  0  0  0  0
   21.9510   56.3790   10.5350 C   0  0  2  0  0  0  0  0  0  0  0  0
   20.5230   56.8760   10.8640 C   0  0  1  0  0  0  0  0  0  0  0  0
   19.7970   57.5510    9.6970 C   0  0  1  0  0  0  0  0  0  0  0  0
   19.6490   55.7840   11.5070 C   0  0  0  0  0  0  0  0  0  0  0  0
   20.3390   55.0890   12.7170 C   0  0  0  0  0  0  0  0  0  0  0  0
   21.7040   54.5480   12.3040 C   0  0  1  0  0  0  0  0  0  0  0  0
   22.5330   55.6860   11.7550 C   0  0  1  0  0  0  0  0  0  0  0  0
   23.9670   55.1150   11.6910 C   0  0  0  0  0  0  0  0  0  0  0  0
   24.0190   54.1270   12.8790 C   0  0  0  0  0  0  0  0  0  0  0  0
   22.5850   54.1050   13.4670 C   0  0  2  0  0  0  0  0  0  0  0  0
   21.5870   53.3990   11.2810 C   0  0  0  0  0  0  0  0  0  0  0  0
   19.4600   56.5550    8.5920 C   0  0  0  0  0  0  0  0  0  0  0  0
   22.1580   52.8530   14.2370 C   0  0  2  0  0  0  0  0  0  0  0  0
   22.4740   53.0140   15.7410 C   0  0  0  0  0  0  0  0  0  0  0  0
   22.7920   51.5270   13.7480 C   0  0  0  0  0  0  0  0  0  0  0  0
   21.9950   50.2750   14.1830 C   0  0  0  0  0  0  0  0  0  0  0  0
   22.6140   48.9800   13.6780 C   0  0  0  0  0  0  0  0  0  0  0  0
   21.7420   47.7300   13.8980 C   0  0  1  0  0  0  0  0  0  0  0  0
   20.5390   47.6710   12.9390 C   0  0  0  0  0  0  0  0  0  0  0  0
   22.5760   46.4500   13.8030 C   0  0  0  0  0  0  0  0  0  0  0  0
   18.5590   61.4100    8.5930 O   0  0  0  0  0  0  0  0  0  0  0  0
  2  1  1  0
  3  2  1  0
  4  3  1  0
  5  4  1  0
  6  5  1  0
  7  6  1  0
  8  7  1  1
  9  8  1  0
 10  9  1  0
 10  5  1  0
 10  1  1  0
  9 11  1  6
 12 11  1  0
 13 12  1  0
 14 13  1  0
 14  8  1  0
 14 15  1  6
 16 15  1  0
 17 13  1  0
 17 16  1  6
 13 18  1  6
 10 19  1  6
 20 17  1  0
 20 21  1  1
 22 20  1  0
 23 22  1  0
 24 23  1  0
 25 24  1  0
 25 26  1  6
 27 25  1  0
 28  3  1  0
M  END
$$$$
