
     RDKit          3D

 27 29  0  0  0  0  0  0  0  0999 V2000
   24.7100   -8.5210   20.5630 F   0  0  0  0  0  0  0  0  0  0  0  0
   24.0720   -9.3860   21.2760 C   0  0  1  0  0  0  0  0  0  0  0  0
   24.5670  -10.5620   21.0220 F   0  0  0  0  0  0  0  0  0  0  0  0
   24.2860   -9.1470   22.5490 F   0  0  0  0  0  0  0  0  0  0  0  0
   22.5940   -9.3140   20.9600 C   0  0  0  0  0  0  0  0  0  0  0  0
   22.1210   -8.4600   19.9570 C   0  0  0  0  0  0  0  0  0  0  0  0
   21.7680  -10.1200   21.7180 C   0  0  0  0  0  0  0  0  0  0  0  0
   20.3810  -10.1110   21.4870 C   0  0  0  0  0  0  0  0  0  0  0  0
   19.8920   -9.2300   20.5170 C   0  0  0  0  0  0  0  0  0  0  0  0
   20.7410   -8.4370   19.7490 C   0  0  0  0  0  0  0  0  0  0  0  0
   20.1540   -7.5840   18.6800 C   0  0  0  0  0  0  0  0  0  0  0  0
   20.7950   -6.9830   17.8860 O   0  0  0  0  0  0  0  0  0  0  0  0
   18.7600   -7.5190   18.6080 O   0  0  0  0  0  0  0  0  0  0  0  0
   18.1080   -6.7770   17.6100 C   0  0  2  0  0  0  0  0  0  0  0  0
   17.1710   -5.8030   18.2930 C   0  0  0  0  0  0  0  0  0  0  0  0
   17.8540   -4.8260   19.1640 N   0  0  0  0  0  0  0  0  0  0  0  0
   17.8050   -4.7540   20.4770 C   0  0  0  0  0  0  0  0  0  0  0  0
   18.4740   -3.6580   20.9450 N   0  0  0  0  0  0  0  0  0  0  0  0
   19.0260   -3.0780   19.8480 C   0  0  0  0  0  0  0  0  0  0  0  0
   18.6240   -3.7850   18.7220 C   0  0  0  0  0  0  0  0  0  0  0  0
   17.2880   -7.7420   16.8150 C   0  0  1  0  0  0  0  0  0  0  0  0
   17.3430   -7.7750   15.4180 C   0  0  0  0  0  0  0  0  0  0  0  0
   16.5750   -8.6570   14.6510 C   0  0  0  0  0  0  0  0  0  0  0  0
   15.7740   -9.5560   15.3590 C   0  0  0  0  0  0  0  0  0  0  0  0
   14.9770  -10.4350   14.7580 F   0  0  0  0  0  0  0  0  0  0  0  0
   15.7360   -9.5270   16.7540 C   0  0  0  0  0  0  0  0  0  0  0  0
   16.4960   -8.6680   17.4690 C   0  0  0  0  0  0  0  0  0  0  0  0
  2  1  1  6
  3  2  1  0
  4  2  1  0
  5  2  1  0
  6  5  1  0
  7  5  1  0
  8  7  1  0
  9  8  1  0
 10  9  1  0
 10  6  1  0
 11 10  1  0
 12 11  1  0
 13 11  1  0
 14 13  1  0
 14 15  1  1
 16 15  1  0
 17 16  1  0
 18 17  1  0
 19 18  1  0
 20 19  1  0
 20 16  1  0
 21 14  1  0
 21 22  1  1
 23 22  1  0
 24 23  1  0
 25 24  1  0
 26 24  1  0
 27 26  1  0
 27 21  1  0
M  END
$$$$
