
     RDKit          3D

 16 16  0  0  0  0  0  0  0  0999 V2000
   34.8390   -1.4170   60.0650 C   0  0  0  0  0  0  0  0  0  0  0  0
   37.1410   -0.7380   59.2310 C   0  0  0  0  0  0  0  0  0  0  0  0
   38.2020   -0.9910   60.3020 C   0  0  2  0  0  0  0  0  0  0  0  0
   37.8390   -2.1340   61.2310 C   0  0  0  0  0  0  0  0  0  0  0  0
   38.5120    0.2680   61.0940 C   0  0  0  0  0  0  0  0  0  0  0  0
   34.3940   -2.2970   61.0350 C   0  0  0  0  0  0  0  0  0  0  0  0
   33.3310   -1.9830   61.8670 C   0  0  0  0  0  0  0  0  0  0  0  0
   32.6750   -0.7770   61.7210 C   0  0  0  0  0  0  0  0  0  0  0  0
   33.0710    0.1260   60.7300 C   0  0  0  0  0  0  0  0  0  0  0  0
   34.1570   -0.2060   59.9160 C   0  0  0  0  0  0  0  0  0  0  0  0
   32.3540    1.4330   60.5410 C   0  0  0  0  0  0  0  0  0  0  0  0
   30.8300   -1.3780   63.2350 C   0  0  0  0  0  0  0  0  0  0  0  0
   36.0200   -1.7670   59.1860 C   0  0  0  0  0  0  0  0  0  0  0  0
   31.5450   -0.4600   62.5450 N   0  0  0  0  0  0  0  0  0  0  0  0
   30.1830   -1.0610   64.3180 N   0  0  0  0  0  0  0  0  0  0  0  0
   30.3050    0.3410   64.5510 O   0  0  0  0  0  0  0  0  0  0  0  0
  3  2  1  0
  3  4  1  1
  5  3  1  0
  6  1  1  0
  7  6  1  0
  8  7  1  0
  9  8  1  0
 10  9  1  0
 10  1  1  0
 11  9  1  0
 13  2  1  0
 13  1  1  0
 14 12  1  0
 14  8  1  0
 15 12  1  0
 16 15  1  0
M  END
$$$$
