
     RDKit          3D

 16 16  0  0  0  0  0  0  0  0999 V2000
    9.9370    8.3580   16.7360 C   0  0  0  0  0  0  0  0  0  0  0  0
   11.1620   10.3360   17.0680 C   0  0  0  0  0  0  0  0  0  0  0  0
   12.5570   10.8640   17.2090 C   0  0  0  0  0  0  0  0  0  0  0  0
   13.1750   11.2550   15.9040 C   0  0  0  0  0  0  0  0  0  0  0  0
   12.3980   12.3200   15.1540 C   0  0  0  0  0  0  0  0  0  0  0  0
   16.1220   14.0360   10.8880 C   0  0  0  0  0  0  0  0  0  0  0  0
   13.1440   12.8270   13.9290 C   0  0  0  0  0  0  0  0  0  0  0  0
   12.3010   13.4680   12.8810 C   0  0  0  0  0  0  0  0  0  0  0  0
   15.5960   15.2750   11.1390 N   0  0  0  0  0  0  0  0  0  0  0  0
   15.1350   13.1310   10.9990 C   0  0  0  0  0  0  0  0  0  0  0  0
   14.0090   13.8230   11.2880 N   0  0  0  0  0  0  0  0  0  0  0  0
   12.7110   13.2040   11.4590 C   0  0  0  0  0  0  0  0  0  0  0  0
   14.3230   15.1300   11.3490 C   0  0  0  0  0  0  0  0  0  0  0  0
    8.7180    8.9080   16.0910 C   0  0  0  0  0  0  0  0  0  0  0  0
   10.1950   10.9190   17.4590 O   0  0  0  0  0  0  0  0  0  0  0  0
   11.1230    9.1490   16.4640 O   0  0  0  0  0  0  0  0  0  0  0  0
  3  2  1  0
  4  3  1  0
  5  4  1  0
  7  5  1  0
  8  7  1  0
  9  6  1  0
 10  6  1  0
 11 10  1  0
 12 11  1  0
 12  8  1  0
 13 11  1  0
 13  9  1  0
 14  1  1  0
 15  2  1  0
 16  1  1  0
 16  2  1  0
M  END
$$$$
