
     RDKit          3D

 24 26  0  0  0  0  0  0  0  0999 V2000
    9.2510   21.5280   -0.7860 O   0  0  0  0  0  0  0  0  0  0  0  0
    8.9350   20.3440   -0.6630 C   0  0  0  0  0  0  0  0  0  0  0  0
    9.8190   19.2590   -1.2260 C   0  0  2  0  0  0  0  0  0  0  0  0
    9.8540   19.2770   -2.7750 C   0  0  0  0  0  0  0  0  0  0  0  0
   11.0180   18.3960   -3.1890 C   0  0  0  0  0  0  0  0  0  0  0  0
   12.2930   18.9450   -3.3520 C   0  0  0  0  0  0  0  0  0  0  0  0
   13.4030   18.1320   -3.6630 C   0  0  0  0  0  0  0  0  0  0  0  0
   13.2010   16.7380   -3.8320 C   0  0  0  0  0  0  0  0  0  0  0  0
   14.2610   15.9370   -4.1260 O   0  0  0  0  0  0  0  0  0  0  0  0
   11.9180   16.1860   -3.7040 C   0  0  0  0  0  0  0  0  0  0  0  0
   10.8280   17.0180   -3.3850 C   0  0  0  0  0  0  0  0  0  0  0  0
    9.4730   17.9230   -0.7350 N   0  0  0  0  0  0  0  0  0  0  0  0
    7.8260   19.9920   -0.0030 N   0  0  0  0  0  0  0  0  0  0  0  0
    7.3070   18.6450    0.1770 C   0  0  2  0  0  0  0  0  0  0  0  0
    8.3170   17.5780   -0.1490 C   0  0  0  0  0  0  0  0  0  0  0  0
    8.0380   16.4190    0.1440 O   0  0  0  0  0  0  0  0  0  0  0  0
    6.0060   18.4360   -0.6340 C   0  0  0  0  0  0  0  0  0  0  0  0
    6.2290   18.5460   -2.1320 C   0  0  0  0  0  0  0  0  0  0  0  0
    6.5310   17.4080   -2.8850 C   0  0  0  0  0  0  0  0  0  0  0  0
    6.7400   17.5320   -4.2520 C   0  0  0  0  0  0  0  0  0  0  0  0
    6.6300   18.7700   -4.8980 C   0  0  0  0  0  0  0  0  0  0  0  0
    6.8530   18.8760   -6.2430 O   0  0  0  0  0  0  0  0  0  0  0  0
    6.3410   19.9180   -4.1490 C   0  0  0  0  0  0  0  0  0  0  0  0
    6.1400   19.7820   -2.7810 C   0  0  0  0  0  0  0  0  0  0  0  0
  2  1  1  0
  3  2  1  0
  3  4  1  6
  5  4  1  0
  6  5  1  0
  7  6  1  0
  8  7  1  0
  9  8  1  0
 10  8  1  0
 11 10  1  0
 11  5  1  0
 12  3  1  0
 13  2  1  0
 14 13  1  0
 15 14  1  0
 15 12  1  0
 16 15  1  0
 14 17  1  6
 18 17  1  0
 19 18  1  0
 20 19  1  0
 21 20  1  0
 22 21  1  0
 23 21  1  0
 24 23  1  0
 24 18  1  0
M  END
$$$$
