
     RDKit          3D

 19 21  0  0  0  0  0  0  0  0999 V2000
   -9.2690   18.9340    1.2750 C   0  0  0  0  0  0  0  0  0  0  0  0
  -11.0110   19.7730    2.8050 C   0  0  0  0  0  0  0  0  0  0  0  0
  -15.4250   15.5080    4.3700 C   0  0  0  0  0  0  0  0  0  0  0  0
  -14.6560   17.8210    3.9760 C   0  0  0  0  0  0  0  0  0  0  0  0
   -9.4920   17.6220    1.7280 C   0  0  0  0  0  0  0  0  0  0  0  0
  -11.2310   18.4600    3.2730 C   0  0  0  0  0  0  0  0  0  0  0  0
  -14.1110   15.0540    4.1520 C   0  0  0  0  0  0  0  0  0  0  0  0
  -13.3540   17.3470    3.7630 C   0  0  0  0  0  0  0  0  0  0  0  0
   -9.7400   15.1490    3.2030 C   0  0  0  0  0  0  0  0  0  0  0  0
  -10.0350   19.9920    1.8190 C   0  0  0  0  0  0  0  0  0  0  0  0
  -15.6810   16.8920    4.2740 C   0  0  0  0  0  0  0  0  0  0  0  0
  -10.4730   17.3940    2.7290 C   0  0  0  0  0  0  0  0  0  0  0  0
  -13.0510   15.9600    3.8410 C   0  0  0  0  0  0  0  0  0  0  0  0
  -10.6910   16.0780    3.1740 C   0  0  0  0  0  0  0  0  0  0  0  0
  -10.2990   14.0590    3.7010 N   0  0  0  0  0  0  0  0  0  0  0  0
  -11.4780   14.3130    3.9620 N   0  0  0  0  0  0  0  0  0  0  0  0
  -11.7930   15.4790    3.6760 N   0  0  0  0  0  0  0  0  0  0  0  0
   -9.8140   21.2620    1.3730 O   0  0  0  0  0  0  0  0  0  0  0  0
  -16.9420   17.3520    4.4860 O   0  0  0  0  0  0  0  0  0  0  0  0
  5  1  1  0
  6  2  1  0
  7  3  1  0
  8  4  1  0
 10  2  1  0
 10  1  1  0
 11  3  1  0
 11  4  1  0
 12  6  1  0
 12  5  1  0
 13  7  1  0
 13  8  1  0
 14  9  1  0
 14 12  1  0
 15  9  1  0
 16 15  1  0
 17 16  1  0
 17 13  1  0
 17 14  1  0
 18 10  1  0
 19 11  1  0
M  END
$$$$
