
     RDKit          3D

 12 13  0  0  0  0  0  0  0  0999 V2000
  -10.8440   19.1620    3.3760 C   0  0  0  0  0  0  0  0  0  0  0  0
  -10.4310   20.2540    2.6010 C   0  0  0  0  0  0  0  0  0  0  0  0
   -9.5150   20.0900    1.5830 C   0  0  0  0  0  0  0  0  0  0  0  0
   -9.1230   21.1310    0.8060 O   0  0  0  0  0  0  0  0  0  0  0  0
   -9.0040   18.8270    1.3600 C   0  0  0  0  0  0  0  0  0  0  0  0
   -9.3850   17.7420    2.1440 C   0  0  0  0  0  0  0  0  0  0  0  0
  -10.3160   17.8880    3.1650 C   0  0  0  0  0  0  0  0  0  0  0  0
  -10.6410   16.8280    3.9210 N   0  0  0  0  0  0  0  0  0  0  0  0
   -9.8020   15.8540    4.3070 C   0  0  0  0  0  0  0  0  0  0  0  0
  -10.4910   15.0020    5.0380 N   0  0  0  0  0  0  0  0  0  0  0  0
  -11.7290   15.5010    5.0560 C   0  0  0  0  0  0  0  0  0  0  0  0
  -11.7700   16.6160    4.3390 N   0  0  0  0  0  0  0  0  0  0  0  0
  2  1  1  0
  3  2  1  0
  4  3  1  0
  5  3  1  0
  6  5  1  0
  7  6  1  0
  7  1  1  0
  8  7  1  0
  9  8  1  0
 10  9  1  0
 11 10  1  0
 12 11  1  0
 12  8  1  0
M  END
$$$$
