
     RDKit          3D

 26 29  0  0  0  0  0  0  0  0999 V2000
  -12.4800   17.1410    2.9350 C   0  0  0  0  0  0  0  0  0  0  0  0
  -10.3880   15.9800    2.6650 C   0  0  0  0  0  0  0  0  0  0  0  0
  -10.8530   14.9580    3.4870 C   0  0  0  0  0  0  0  0  0  0  0  0
  -12.1250   15.0300    4.0430 C   0  0  0  0  0  0  0  0  0  0  0  0
   -8.0280   16.9170    1.7610 C   0  0  2  0  0  0  0  0  0  0  0  0
   -6.9230   16.1240    1.1980 C   0  0  0  0  0  0  0  0  0  0  0  0
   -8.0520   18.3850    2.0000 C   0  0  0  0  0  0  0  0  0  0  0  0
   -8.6030   19.3050    1.1110 C   0  0  0  0  0  0  0  0  0  0  0  0
   -8.5690   20.6650    1.4160 C   0  0  0  0  0  0  0  0  0  0  0  0
   -7.9830   21.1000    2.6120 C   0  0  0  0  0  0  0  0  0  0  0  0
  -12.9380   16.1220    3.7620 C   0  0  0  0  0  0  0  0  0  0  0  0
  -11.2040   17.0710    2.3810 C   0  0  0  0  0  0  0  0  0  0  0  0
  -14.1920   16.1850    4.2900 O   0  0  0  0  0  0  0  0  0  0  0  0
   -9.0240   15.8550    2.0750 C   0  0  0  0  0  0  0  0  0  0  0  0
   -7.1880   14.8200    1.1310 N   0  0  0  0  0  0  0  0  0  0  0  0
   -8.4870   14.6660    1.6690 N   0  0  0  0  0  0  0  0  0  0  0  0
   -7.4280   20.1640    3.4820 C   0  0  0  0  0  0  0  0  0  0  0  0
   -7.4630   18.8200    3.1720 C   0  0  0  0  0  0  0  0  0  0  0  0
   -6.7780   20.5070    4.7710 C   0  0  0  0  0  0  0  0  0  0  0  0
   -7.2420   21.5450    5.5660 C   0  0  0  0  0  0  0  0  0  0  0  0
   -6.6100   21.8160    6.7740 C   0  0  0  0  0  0  0  0  0  0  0  0
   -5.5340   21.0420    7.1920 C   0  0  0  0  0  0  0  0  0  0  0  0
   -5.0760   20.0000    6.3990 C   0  0  0  0  0  0  0  0  0  0  0  0
   -5.7040   19.7340    5.1900 C   0  0  0  0  0  0  0  0  0  0  0  0
   -5.6760   16.7210    0.7420 N   0  0  0  0  0  0  0  0  0  0  0  0
   -7.0950   22.9300    7.6280 N   0  0  0  0  0  0  0  0  0  0  0  0
  3  2  1  0
  4  3  1  0
  6  5  1  0
  5  7  1  1
  8  7  1  0
  9  8  1  0
 10  9  1  0
 11  4  1  0
 11  1  1  0
 12  1  1  0
 12  2  1  0
 13 11  1  0
 14  2  1  0
 14  5  1  0
 15  6  1  0
 16 15  1  0
 16 14  1  0
 17 10  1  0
 18 17  1  0
 18  7  1  0
 19 17  1  0
 20 19  1  0
 21 20  1  0
 22 21  1  0
 23 22  1  0
 24 19  1  0
 24 23  1  0
 25  6  1  0
 26 21  1  0
M  END
$$$$
