
     RDKit          3D

 26 29  0  0  0  0  0  0  0  0999 V2000
  -50.0410   82.5710    4.0870 C   0  0  1  0  0  0  0  0  0  0  0  0
  -51.4790   82.9300    4.0910 C   0  0  2  0  0  0  0  0  0  0  0  0
  -53.7290   82.1100    4.0060 C   0  0  0  0  0  0  0  0  0  0  0  0
  -53.2930   84.4470    4.4210 C   0  0  0  0  0  0  0  0  0  0  0  0
  -51.9280   84.2180    4.3530 C   0  0  0  0  0  0  0  0  0  0  0  0
  -48.1550   85.6600    0.7970 C   0  0  0  0  0  0  0  0  0  0  0  0
  -48.3260   85.6720    3.5680 C   0  0  0  0  0  0  0  0  0  0  0  0
  -45.8560   81.7550    2.6380 C   0  0  0  0  0  0  0  0  0  0  0  0
  -47.1200   78.3260    2.4400 C   0  0  0  0  0  0  0  0  0  0  0  0
  -48.8060   83.2370    3.5940 C   0  0  0  0  0  0  0  0  0  0  0  0
  -47.7800   82.2710    4.0210 C   0  0  0  0  0  0  0  0  0  0  0  0
  -48.2700   81.2170    4.6700 N   0  0  0  0  0  0  0  0  0  0  0  0
  -49.6520   81.4180    4.7110 N   0  0  0  0  0  0  0  0  0  0  0  0
  -52.3730   81.8800    3.9520 C   0  0  0  0  0  0  0  0  0  0  0  0
  -54.1810   83.3910    4.2490 C   0  0  0  0  0  0  0  0  0  0  0  0
  -55.5160   83.5840    4.3330 O   0  0  0  0  0  0  0  0  0  0  0  0
  -48.5390   84.4990    2.8620 C   0  0  2  0  0  0  0  0  0  0  0  0
  -48.4400   84.4780    1.4770 C   0  0  0  0  0  0  0  0  0  0  0  0
  -47.9530   86.8460    1.4970 C   0  0  0  0  0  0  0  0  0  0  0  0
  -48.0390   86.8530    2.8870 C   0  0  0  0  0  0  0  0  0  0  0  0
  -47.6660   87.9930    0.8160 O   0  0  0  0  0  0  0  0  0  0  0  0
  -46.4550   82.4290    3.7800 N   0  0  0  0  0  0  0  0  0  0  0  0
  -46.1630   80.2760    2.7230 C   0  0  0  0  0  0  0  0  0  0  0  0
  -45.4590   79.3290    3.4670 C   0  0  0  0  0  0  0  0  0  0  0  0
  -46.0580   78.1260    3.2730 N   0  0  0  0  0  0  0  0  0  0  0  0
  -47.1850   79.6350    2.1010 N   0  0  0  0  0  0  0  0  0  0  0  0
  2  1  1  0
  5  4  1  0
  2  5  1  1
 10  1  1  0
 11 10  1  0
 12 11  1  0
  1 13  1  1
 13 12  1  0
 14  3  1  0
 14  2  1  0
 15  4  1  0
 15  3  1  0
 16 15  1  0
 17 10  1  1
 17  7  1  0
 18 17  1  0
 18  6  1  0
 19  6  1  0
 20 19  1  0
 20  7  1  0
 21 19  1  0
 22 11  1  0
 22  8  1  0
 23  8  1  0
 24 23  1  0
 25 24  1  0
 25  9  1  0
 26 23  1  0
 26  9  1  0
M  END
$$$$
