
     RDKit          3D

 23 25  0  0  0  0  0  0  0  0999 V2000
   -7.7790   22.4060    7.5530 C   0  0  0  0  0  0  0  0  0  0  0  0
   -6.9220   18.5100    2.8950 C   0  0  0  0  0  0  0  0  0  0  0  0
  -11.5480   18.0680    2.4400 C   0  0  0  0  0  0  0  0  0  0  0  0
  -13.6080   17.3210    4.2030 C   0  0  0  0  0  0  0  0  0  0  0  0
  -13.2780   18.6670    4.0620 C   0  0  0  0  0  0  0  0  0  0  0  0
   -9.5080   21.1800    1.3370 O   0  0  0  0  0  0  0  0  0  0  0  0
   -8.8450   20.3530    1.9630 C   0  0  0  0  0  0  0  0  0  0  0  0
   -7.5320   20.8220    2.6500 C   0  0  0  0  0  0  0  0  0  0  0  0
   -6.9370   19.8190    3.5910 N   0  0  0  0  0  0  0  0  0  0  0  0
   -5.5120   20.2170    3.9750 C   0  0  0  0  0  0  0  0  0  0  0  0
   -5.1290   19.4420    5.2480 C   0  0  0  0  0  0  0  0  0  0  0  0
   -6.2640   19.3490    6.2910 C   0  0  0  0  0  0  0  0  0  0  0  0
   -6.6300   20.6250    6.7990 N   0  0  0  0  0  0  0  0  0  0  0  0
   -7.9100   21.0880    7.0670 C   0  0  0  0  0  0  0  0  0  0  0  0
   -6.4950   22.7410    7.6100 N   0  0  0  0  0  0  0  0  0  0  0  0
   -5.8030   21.6460    7.1360 C   0  0  0  0  0  0  0  0  0  0  0  0
   -8.3720   18.0750    2.8330 C   0  0  0  0  0  0  0  0  0  0  0  0
   -9.2420   18.9820    2.0650 N   0  0  0  0  0  0  0  0  0  0  0  0
  -10.4530   18.4540    1.4800 C   0  0  0  0  0  0  0  0  0  0  0  0
  -11.9100   16.7310    2.6430 C   0  0  0  0  0  0  0  0  0  0  0  0
  -12.9310   16.3290    3.5070 C   0  0  0  0  0  0  0  0  0  0  0  0
  -14.5780   16.9690    5.0380 F   0  0  0  0  0  0  0  0  0  0  0  0
  -12.2430   19.0290    3.1930 C   0  0  0  0  0  0  0  0  0  0  0  0
  5  4  1  0
  7  6  1  0
  8  7  1  0
  9  8  1  0
  9  2  1  0
 10  9  1  0
 11 10  1  0
 12 11  1  0
 13 12  1  0
 14 13  1  0
 14  1  1  0
 15  1  1  0
 16 13  1  0
 16 15  1  0
 17  2  1  0
 18 17  1  0
 18  7  1  0
 19  3  1  0
 19 18  1  0
 20  3  1  0
 21 20  1  0
 21  4  1  0
 22  4  1  0
 23  5  1  0
 23  3  1  0
M  END
$$$$
