
     RDKit          3D

 25 28  0  0  0  0  0  0  0  0999 V2000
   -6.9810   20.7960  264.0090 C   0  0  0  0  0  0  0  0  0  0  0  0
   -8.8890   20.3560  265.2510 C   0  0  0  0  0  0  0  0  0  0  0  0
   -9.8760   20.7530  266.1310 C   0  0  0  0  0  0  0  0  0  0  0  0
  -10.6500   19.8050  266.7510 C   0  0  0  0  0  0  0  0  0  0  0  0
  -10.4610   18.4630  266.4770 C   0  0  0  0  0  0  0  0  0  0  0  0
  -11.3260   17.5130  267.1540 C   0  0  0  0  0  0  0  0  0  0  0  0
  -14.5050   16.7660  268.1570 C   0  0  0  0  0  0  0  0  0  0  0  0
  -15.0220   17.9490  268.6780 C   0  0  0  0  0  0  0  0  0  0  0  0
  -16.3610   17.9910  268.9780 C   0  0  0  0  0  0  0  0  0  0  0  0
  -17.1320   16.8630  268.7520 C   0  0  0  0  0  0  0  0  0  0  0  0
  -16.5730   15.7060  268.2350 C   0  0  0  0  0  0  0  0  0  0  0  0
  -15.2310   15.6450  267.9250 C   0  0  0  0  0  0  0  0  0  0  0  0
  -12.1880   15.8030  268.2670 C   0  0  0  0  0  0  0  0  0  0  0  0
  -10.9770   16.2810  267.7790 C   0  0  0  0  0  0  0  0  0  0  0  0
   -9.6180   15.6600  267.9140 C   0  0  0  0  0  0  0  0  0  0  0  0
   -9.9350   13.3420  266.8480 C   0  0  0  0  0  0  0  0  0  0  0  0
   -9.2230   12.6300  265.9030 C   0  0  0  0  0  0  0  0  0  0  0  0
   -8.1610   14.5370  266.1360 C   0  0  0  0  0  0  0  0  0  0  0  0
   -9.4850   18.0440  265.6010 C   0  0  0  0  0  0  0  0  0  0  0  0
   -8.6860   18.9910  264.9750 C   0  0  0  0  0  0  0  0  0  0  0  0
  -12.6120   17.7790  267.2250 N   0  0  0  0  0  0  0  0  0  0  0  0
  -13.1050   16.7690  267.8650 N   0  0  0  0  0  0  0  0  0  0  0  0
   -9.2730   14.5730  267.0090 N   0  0  0  0  0  0  0  0  0  0  0  0
   -8.1200   13.3750  265.4500 N   0  0  0  0  0  0  0  0  0  0  0  0
   -8.1310   21.2850  264.6720 O   0  0  0  0  0  0  0  0  0  0  0  0
  3  2  1  0
  4  3  1  0
  5  4  1  0
  6  5  1  0
  8  7  1  0
  9  8  1  0
 10  9  1  0
 11 10  1  0
 12 11  1  0
 12  7  1  0
 14 13  1  0
 14  6  1  0
 15 14  1  0
 17 16  1  0
 19  5  1  0
 20 19  1  0
 20  2  1  0
 21  6  1  0
 22 13  1  0
 22 21  1  0
 22  7  1  0
 23 18  1  0
 23 16  1  0
 23 15  1  0
 24 18  1  0
 24 17  1  0
 25  2  1  0
 25  1  1  0
M  END
$$$$
