
     RDKit          3D

 24 27  0  0  0  0  0  0  0  0999 V2000
  -15.3970   18.4060    4.5820 C   0  0  0  0  0  0  0  0  0  0  0  0
  -17.0030   16.0900    4.3360 C   0  0  0  0  0  0  0  0  0  0  0  0
  -12.9470   15.9820    3.2180 C   0  0  0  0  0  0  0  0  0  0  0  0
  -10.5870   15.7010    2.2450 C   0  0  0  0  0  0  0  0  0  0  0  0
   -7.8800   16.6380    4.5100 C   0  0  0  0  0  0  0  0  0  0  0  0
   -8.2950   16.7960    2.3360 C   0  0  0  0  0  0  0  0  0  0  0  0
  -10.1200   21.1360    2.2430 C   0  0  0  0  0  0  0  0  0  0  0  0
   -9.4720   20.8080    1.0270 C   0  0  1  0  0  0  0  0  0  0  0  0
   -9.6140   19.6440    0.2790 C   0  0  0  0  0  0  0  0  0  0  0  0
  -10.4330   18.6620    0.8090 C   0  0  0  0  0  0  0  0  0  0  0  0
  -11.0920   18.8980    2.0720 C   0  0  2  0  0  0  0  0  0  0  0  0
  -11.9490   17.8820    2.5720 C   0  0  0  0  0  0  0  0  0  0  0  0
  -15.0020   17.1580    3.8940 C   0  0  2  0  0  0  0  0  0  0  0  0
  -16.7090   18.3220    5.1080 C   0  0  0  0  0  0  0  0  0  0  0  0
  -17.4620   17.1310    5.1000 C   0  0  0  0  0  0  0  0  0  0  0  0
  -15.7200   16.0410    3.7940 C   0  0  0  0  0  0  0  0  0  0  0  0
  -11.7560   16.4650    2.6770 C   0  0  1  0  0  0  0  0  0  0  0  0
   -9.1330   16.0610    4.3100 C   0  0  0  0  0  0  0  0  0  0  0  0
  -10.9790   20.1370    2.7660 C   0  0  0  0  0  0  0  0  0  0  0  0
   -8.6500   21.7760    0.4400 F   0  0  0  0  0  0  0  0  0  0  0  0
  -13.1360   18.1670    2.9980 N   0  0  0  0  0  0  0  0  0  0  0  0
  -13.7260   17.0810    3.3430 N   0  0  0  0  0  0  0  0  0  0  0  0
   -9.3780   16.1600    2.9610 N   0  0  0  0  0  0  0  0  0  0  0  0
   -7.3770   17.0900    3.2680 N   0  0  0  0  0  0  0  0  0  0  0  0
  8  7  1  0
  9  8  1  0
 10  9  1  0
 11 10  1  0
 11 12  1  6
 13  1  1  0
 14  1  1  0
 15  2  1  0
 15 14  1  0
 16  2  1  0
 16 13  1  0
 17  3  1  0
 17 12  1  0
 17  4  1  6
 18  5  1  0
 19 11  1  0
 19  7  1  0
  8 20  1  6
 21 12  1  0
 22  3  1  0
 22 21  1  0
 13 22  1  1
 23 18  1  0
 23  4  1  0
 23  6  1  0
 24  6  1  0
 24  5  1  0
M  END
$$$$
