
     RDKit          3D

 25 27  0  0  0  0  0  0  0  0999 V2000
   -5.9540   18.7660    5.1120 C   0  0  1  0  0  0  0  0  0  0  0  0
  -10.9720   14.8000    3.9840 C   0  0  0  0  0  0  0  0  0  0  0  0
   -6.7430   16.8650    3.8690 C   0  0  0  0  0  0  0  0  0  0  0  0
   -7.2730   18.8860    5.7440 C   0  0  0  0  0  0  0  0  0  0  0  0
   -5.8370   17.7200    4.1620 N   0  0  0  0  0  0  0  0  0  0  0  0
   -7.3850   19.6350    6.6590 O   0  0  0  0  0  0  0  0  0  0  0  0
  -11.0050   18.5220    3.3280 C   0  0  0  0  0  0  0  0  0  0  0  0
  -11.4980   16.2550    3.8270 C   0  0  0  0  0  0  0  0  0  0  0  0
   -7.6900   20.9080    3.4730 C   0  0  0  0  0  0  0  0  0  0  0  0
  -12.3080   18.8550    3.5500 C   0  0  0  0  0  0  0  0  0  0  0  0
  -12.8290   16.5540    4.0310 C   0  0  0  0  0  0  0  0  0  0  0  0
   -8.6360   21.1210    2.5070 C   0  0  0  0  0  0  0  0  0  0  0  0
   -8.1420   17.0210    4.4080 C   0  0  2  0  0  0  0  0  0  0  0  0
   -9.1240   16.9980    3.2240 C   0  0  0  0  0  0  0  0  0  0  0  0
   -5.6520   20.0380    4.3580 C   0  0  0  0  0  0  0  0  0  0  0  0
   -6.3600   19.6350    1.9380 C   0  0  0  0  0  0  0  0  0  0  0  0
   -7.3220   19.8720    0.9310 C   0  0  0  0  0  0  0  0  0  0  0  0
  -10.6000   17.2410    3.5000 C   0  0  1  0  0  0  0  0  0  0  0  0
   -6.5750   20.1640    3.2010 C   0  0  0  0  0  0  0  0  0  0  0  0
  -13.2110   17.8780    3.8750 C   0  0  0  0  0  0  0  0  0  0  0  0
   -8.4590   20.5990    1.2480 C   0  0  0  0  0  0  0  0  0  0  0  0
   -8.2800   18.2070    5.2340 N   0  0  0  0  0  0  0  0  0  0  0  0
   -6.4440   15.9580    3.1480 O   0  0  0  0  0  0  0  0  0  0  0  0
  -14.4580   18.2610    4.0810 O   0  0  0  0  0  0  0  0  0  0  0  0
   -9.4160   20.8810    0.4010 O   0  0  0  0  0  0  0  0  0  0  0  0
  4  1  1  0
  5  3  1  0
  5  1  1  0
  6  4  1  0
  8  2  1  0
 10  7  1  0
 11  8  1  0
 12  9  1  0
 13  3  1  0
 13 14  1  6
  1 15  1  6
 17 16  1  0
 18  8  1  0
 18  7  1  0
 18 14  1  6
 19 16  1  0
 19 15  1  0
 19  9  1  0
 20 11  1  0
 20 10  1  0
 21 17  1  0
 21 12  1  0
 22 13  1  0
 22  4  1  0
 23  3  1  0
 24 20  1  0
 25 21  1  0
M  END
$$$$
