
     RDKit          3D

 42 48  0  0  0  0  0  0  0  0999 V2000
   28.2690   18.9570   11.6450 C   0  0  0  0  0  0  0  0  0  0  0  0
   28.3850   19.7910   10.5530 C   0  0  0  0  0  0  0  0  0  0  0  0
   22.3710   33.2130   14.5000 C   0  0  0  0  0  0  0  0  0  0  0  0
   21.3550   35.6010   13.0140 C   0  0  0  0  0  0  0  0  0  0  0  0
   20.8680   36.7990   12.4940 C   0  0  0  0  0  0  0  0  0  0  0  0
   19.6410   37.2980   12.9070 C   0  0  0  0  0  0  0  0  0  0  0  0
   19.1420   38.5480   12.3930 F   0  0  0  0  0  0  0  0  0  0  0  0
   18.9020   36.6050   13.8560 C   0  0  0  0  0  0  0  0  0  0  0  0
   19.3990   35.4080   14.3700 C   0  0  0  0  0  0  0  0  0  0  0  0
   20.6570   34.9350   14.0120 C   0  0  1  0  0  0  0  0  0  0  0  0
   21.0610   33.6750   14.4470 C   0  0  1  0  0  0  0  0  0  0  0  0
   20.0540   32.7450   14.6920 C   0  0  0  0  0  0  0  0  0  0  0  0
   20.3490   31.4310   15.0670 C   0  0  0  0  0  0  0  0  0  0  0  0
   19.3910   30.5550   15.3090 F   0  0  0  0  0  0  0  0  0  0  0  0
   22.6660   31.9070   14.8950 C   0  0  0  0  0  0  0  0  0  0  0  0
   23.8530   31.5370   14.9730 F   0  0  0  0  0  0  0  0  0  0  0  0
   21.6490   30.9950   15.1700 C   0  0  0  0  0  0  0  0  0  0  0  0
   21.8130   29.6460   15.5460 C   0  0  2  0  0  0  0  0  0  0  0  0
   22.8000   29.3950   16.6800 C   0  0  0  0  0  0  0  0  0  0  0  0
   22.4780   30.1490   17.8770 N   0  0  0  0  0  0  0  0  0  0  0  0
   21.4760   29.9380   18.7150 C   0  0  0  0  0  0  0  0  0  0  0  0
   21.5580   30.8580   19.6740 C   0  0  0  0  0  0  0  0  0  0  0  0
   22.6360   31.6100   19.4500 N   0  0  0  0  0  0  0  0  0  0  0  0
   23.2220   31.1510   18.3380 C   0  0  0  0  0  0  0  0  0  0  0  0
   22.3750   28.7940   14.5000 N   0  0  0  0  0  0  0  0  0  0  0  0
   22.1490   27.4710   14.6250 C   0  0  2  0  0  0  0  0  0  0  0  0
   21.3920   26.9420   15.4530 O   0  0  0  0  0  0  0  0  0  0  0  0
   22.9150   26.6400   13.8530 C   0  0  1  0  0  0  0  0  0  0  0  0
   23.4620   25.5760   14.5540 C   0  0  0  0  0  0  0  0  0  0  0  0
   24.2330   24.6450   13.8940 C   0  0  0  0  0  0  0  0  0  0  0  0
   23.0600   26.8060   12.4850 C   0  0  0  0  0  0  0  0  0  0  0  0
   23.8320   25.8730   11.8230 C   0  0  0  0  0  0  0  0  0  0  0  0
   24.4010   24.8310   12.5370 C   0  0  2  0  0  0  0  0  0  0  0  0
   25.0770   23.9420   11.8610 C   0  0  2  0  0  0  0  0  0  0  0  0
   25.5500   22.9460   12.3500 O   0  0  0  0  0  0  0  0  0  0  0  0
   25.0710   23.9140   10.5450 N   0  0  0  0  0  0  0  0  0  0  0  0
   25.7910   22.8610   10.2280 N   0  0  0  0  0  0  0  0  0  0  0  0
   26.0260   22.3050   11.3890 C   0  0  1  0  0  0  0  0  0  0  0  0
   26.7380   21.2110   11.5160 C   0  0  0  0  0  0  0  0  0  0  0  0
   27.5980   20.9150   10.4880 C   0  0  0  0  0  0  0  0  0  0  0  0
   27.4120   19.2660   12.6860 C   0  0  0  0  0  0  0  0  0  0  0  0
   26.6370   20.4080   12.6320 C   0  0  0  0  0  0  0  0  0  0  0  0
  2  1  1  0
  5  4  1  0
  6  5  1  0
  7  6  1  0
  8  6  1  0
  9  8  1  0
 10  9  1  6
 10  4  1  0
 11 10  1  0
 11  3  1  6
 12 11  1  0
 13 12  1  0
 14 13  1  0
 15  3  1  0
 16 15  1  0
 17 13  1  0
 17 15  1  0
 18 17  1  0
 18 19  1  1
 20 19  1  0
 21 20  1  0
 22 21  1  0
 23 22  1  0
 24 23  1  0
 24 20  1  0
 25 18  1  0
 26 25  1  0
 26 27  1  1
 28 26  1  0
 28 29  1  6
 30 29  1  0
 31 28  1  0
 32 31  1  0
 33 32  1  6
 33 30  1  0
 34 33  1  0
 35 34  1  0
 34 36  1  6
 37 36  1  0
 38 37  1  0
 38 35  1  0
 38 34  1  0
 38 39  1  1
 40 39  1  0
 40  2  1  0
 41  1  1  0
 42 39  1  0
 42 41  1  0
M  END
$$$$
