
     RDKit          3D

 25 27  0  0  0  0  0  0  0  0999 V2000
   -9.0290   20.3780    0.7260 C   0  0  0  0  0  0  0  0  0  0  0  0
   -8.2640   17.6700    0.2970 C   0  0  0  0  0  0  0  0  0  0  0  0
   -7.8410   20.1060    0.2650 N   0  0  0  0  0  0  0  0  0  0  0  0
   -7.9190   16.5380    0.0660 O   0  0  0  0  0  0  0  0  0  0  0  0
  -10.9790   16.9680    3.3250 C   0  0  0  0  0  0  0  0  0  0  0  0
  -12.3650   18.8990    3.3860 C   0  0  0  0  0  0  0  0  0  0  0  0
   -6.3540   19.8580    3.0180 C   0  0  0  0  0  0  0  0  0  0  0  0
  -12.0560   16.1550    3.6470 C   0  0  0  0  0  0  0  0  0  0  0  0
  -13.4260   18.0810    3.6990 C   0  0  0  0  0  0  0  0  0  0  0  0
   -6.5760   19.8940    4.3710 C   0  0  0  0  0  0  0  0  0  0  0  0
   -9.8730   19.2620    1.2520 C   0  0  2  0  0  0  0  0  0  0  0  0
   -7.3010   18.7920    0.0220 C   0  0  1  0  0  0  0  0  0  0  0  0
   -9.9470   19.2360    2.7820 C   0  0  0  0  0  0  0  0  0  0  0  0
   -6.0400   18.6100    0.8500 C   0  0  0  0  0  0  0  0  0  0  0  0
   -6.5080   17.5060    3.0340 C   0  0  0  0  0  0  0  0  0  0  0  0
   -6.7360   17.5420    4.3890 C   0  0  0  0  0  0  0  0  0  0  0  0
  -11.1200   18.3440    3.1730 C   0  0  0  0  0  0  0  0  0  0  0  0
   -6.2960   18.6680    2.3370 C   0  0  0  0  0  0  0  0  0  0  0  0
  -13.2920   16.7270    3.8330 C   0  0  0  0  0  0  0  0  0  0  0  0
   -6.7900   18.7270    5.0810 C   0  0  0  0  0  0  0  0  0  0  0  0
  -14.6200   18.6060    3.9240 F   0  0  0  0  0  0  0  0  0  0  0  0
   -9.4670   17.9640    0.7550 N   0  0  0  0  0  0  0  0  0  0  0  0
   -9.4370   21.4940    0.7350 O   0  0  0  0  0  0  0  0  0  0  0  0
  -14.3760   15.9910    4.1230 O   0  0  0  0  0  0  0  0  0  0  0  0
   -7.0250   18.7440    6.4050 O   0  0  0  0  0  0  0  0  0  0  0  0
  3  1  1  0
  4  2  1  0
  8  5  1  0
  9  6  1  0
 10  7  1  0
 11  1  1  0
 12  3  1  0
 12  2  1  0
 11 13  1  1
 12 14  1  1
 16 15  1  0
 17  6  1  0
 17  5  1  0
 17 13  1  0
 18 15  1  0
 18 14  1  0
 18  7  1  0
 19  8  1  0
 19  9  1  0
 20 16  1  0
 20 10  1  0
 21  9  1  0
 22 11  1  0
 22  2  1  0
 23  1  1  0
 24 19  1  0
 25 20  1  0
M  END
$$$$
