
     RDKit          3D

 25 27  0  0  0  0  0  0  0  0999 V2000
   -6.7360   18.3650  269.3050 C   0  0  0  0  0  0  0  0  0  0  0  0
   -6.6590   17.2700  268.4570 C   0  0  0  0  0  0  0  0  0  0  0  0
   -6.3410   17.4230  267.1490 C   0  0  0  0  0  0  0  0  0  0  0  0
   -6.1040   18.6810  266.6210 C   0  0  0  0  0  0  0  0  0  0  0  0
   -5.7490   18.8240  265.1890 C   0  0  0  0  0  0  0  0  0  0  0  0
   -6.9350   18.9240  264.2250 C   0  0  1  0  0  0  0  0  0  0  0  0
   -7.9530   17.7510  264.2890 C   0  0  0  0  0  0  0  0  0  0  0  0
   -9.6240   19.3280  265.1710 C   0  0  1  0  0  0  0  0  0  0  0  0
   -9.8760   19.3450  266.7130 C   0  0  0  0  0  0  0  0  0  0  0  0
  -11.0630   18.4780  267.0860 C   0  0  0  0  0  0  0  0  0  0  0  0
  -12.2980   19.0390  267.3060 C   0  0  0  0  0  0  0  0  0  0  0  0
  -13.4350   18.2810  267.6300 C   0  0  0  0  0  0  0  0  0  0  0  0
  -13.2530   16.8890  267.7090 C   0  0  0  0  0  0  0  0  0  0  0  0
  -12.0380   16.3090  267.4960 C   0  0  0  0  0  0  0  0  0  0  0  0
  -10.9550   17.1150  267.2020 C   0  0  0  0  0  0  0  0  0  0  0  0
   -8.7990   20.4680  264.6660 C   0  0  0  0  0  0  0  0  0  0  0  0
   -6.1790   19.7830  267.5310 C   0  0  0  0  0  0  0  0  0  0  0  0
   -6.4770   19.5640  268.8670 C   0  0  1  0  0  0  0  0  0  0  0  0
   -9.2360   18.0640  264.7390 N   0  0  0  0  0  0  0  0  0  0  0  0
   -7.5110   20.1890  264.2310 N   0  0  0  0  0  0  0  0  0  0  0  0
   -7.0280   18.2200  270.6020 O   0  0  0  0  0  0  0  0  0  0  0  0
  -14.2570   16.0680  267.9830 O   0  0  0  0  0  0  0  0  0  0  0  0
   -9.1790   21.5460  264.6530 O   0  0  0  0  0  0  0  0  0  0  0  0
   -7.7090   16.6420  263.9740 O   0  0  0  0  0  0  0  0  0  0  0  0
   -6.6260   20.9790  270.1510 Br  0  0  0  0  0  0  0  0  0  0  0  0
  2  1  1  0
  3  2  1  0
  4  3  1  0
  5  4  1  0
  6  5  1  1
  7  6  1  0
  8  9  1  1
 10  9  1  0
 11 10  1  0
 12 11  1  0
 13 12  1  0
 14 13  1  0
 15 14  1  0
 15 10  1  0
 16  8  1  0
 17  4  1  0
 18 17  1  0
 18  1  1  0
 19  8  1  0
 19  7  1  0
 20 16  1  0
 20  6  1  0
 21  1  1  0
 22 13  1  0
 23 16  1  0
 24  7  1  0
 18 25  1  6
M  END
$$$$
