
     RDKit          3D

 35 37  0  0  0  0  0  0  0  0999 V2000
  -10.9390   16.4230    4.0080 C   0  0  0  0  0  0  0  0  0  0  0  0
   -7.5390   18.0560    3.6440 C   0  0  2  0  0  0  0  0  0  0  0  0
   -7.1090   18.5870    6.0190 C   0  0  0  0  0  0  0  0  0  0  0  0
  -11.2930   18.7580    3.5330 C   0  0  0  0  0  0  0  0  0  0  0  0
  -14.1660   18.2020    4.3090 C   0  0  0  0  0  0  0  0  0  0  0  0
  -15.5170   17.9300    4.4710 C   0  0  0  0  0  0  0  0  0  0  0  0
  -17.4920   16.3100    4.4140 C   0  0  1  0  0  0  0  0  0  0  0  0
  -16.0090   16.6590    4.2320 C   0  0  0  0  0  0  0  0  0  0  0  0
  -15.1310   15.6740    3.8350 C   0  0  0  0  0  0  0  0  0  0  0  0
  -13.7870   15.9350    3.6930 C   0  0  0  0  0  0  0  0  0  0  0  0
  -13.2990   17.2090    3.8950 C   0  0  2  0  0  0  0  0  0  0  0  0
  -11.8030   17.4870    3.7700 C   0  0  2  0  0  0  0  0  0  0  0  0
   -9.5680   16.6100    3.9560 C   0  0  0  0  0  0  0  0  0  0  0  0
   -9.0550   17.8700    3.6900 C   0  0  0  0  0  0  0  0  0  0  0  0
   -6.6200   19.6560    6.7040 C   0  0  0  0  0  0  0  0  0  0  0  0
   -6.6140   20.1430    4.6250 C   0  0  0  0  0  0  0  0  0  0  0  0
   -9.9150   18.9430    3.4790 C   0  0  0  0  0  0  0  0  0  0  0  0
  -17.6420   14.9660    4.5840 F   0  0  0  0  0  0  0  0  0  0  0  0
  -17.9340   16.9260    5.5470 F   0  0  0  0  0  0  0  0  0  0  0  0
  -18.2670   16.6700    3.3580 F   0  0  0  0  0  0  0  0  0  0  0  0
   -7.1020   18.9020    4.7480 N   0  0  0  0  0  0  0  0  0  0  0  0
   -6.3150   20.6000    5.8500 N   0  0  0  0  0  0  0  0  0  0  0  0
  -11.2840   15.5780    4.1870 H   0  0  0  0  0  0  0  0  0  0  0  0
   -7.2920   18.4730    2.8030 H   0  0  0  0  0  0  0  0  0  0  0  0
   -7.1060   17.1910    3.7120 H   0  0  0  0  0  0  0  0  0  0  0  0
   -7.4000   17.7830    6.3860 H   0  0  0  0  0  0  0  0  0  0  0  0
  -11.8680   19.4750    3.3910 H   0  0  0  0  0  0  0  0  0  0  0  0
  -13.8430   19.0590    4.4740 H   0  0  0  0  0  0  0  0  0  0  0  0
  -16.0970   18.6080    4.7360 H   0  0  0  0  0  0  0  0  0  0  0  0
  -15.4480   14.8130    3.6850 H   0  0  0  0  0  0  0  0  0  0  0  0
  -13.2100   15.2570    3.4240 H   0  0  0  0  0  0  0  0  0  0  0  0
   -8.9930   15.8930    4.0970 H   0  0  0  0  0  0  0  0  0  0  0  0
   -6.5140   19.7060    7.6270 H   0  0  0  0  0  0  0  0  0  0  0  0
   -6.4990   20.6070    3.8270 H   0  0  0  0  0  0  0  0  0  0  0  0
   -9.5670   19.7870    3.3010 H   0  0  0  0  0  0  0  0  0  0  0  0
  6  5  1  0
  8  7  1  0
  8  6  1  0
  9  8  1  0
 10  9  1  0
 11 10  1  1
 11  5  1  0
 12 11  1  0
 12  4  1  1
 12  1  1  0
 13  1  1  0
 14 13  1  0
 14  2  1  0
 15  3  1  0
 17  4  1  0
 17 14  1  0
  7 18  1  1
 19  7  1  0
 20  7  1  0
 21 16  1  0
 21  2  1  0
 21  3  1  0
 22 16  1  0
 22 15  1  0
 23  1  1  0
  2 24  1  6
 25  2  1  0
 26  3  1  0
 27  4  1  0
 28  5  1  0
 29  6  1  0
 30  9  1  0
 31 10  1  0
 32 13  1  0
 33 15  1  0
 34 16  1  0
 35 17  1  0
M  END
$$$$
