
     RDKit          3D

 15 14  0  0  0  0  0  0  0  0999 V2000
    0.7700   14.3360   -9.1140 C   0  0  0  0  0  0  0  0  0  0  0  0
   -0.7100   14.0770   -8.7490 C   0  0  0  0  0  0  0  0  0  0  0  0
   -1.3910   14.0000  -10.1420 C   0  0  0  0  0  0  0  0  0  0  0  0
   -2.8500   13.5870   -9.9630 C   0  0  0  0  0  0  0  0  0  0  0  0
   -3.5860   13.7380  -11.2990 C   0  0  0  0  0  0  0  0  0  0  0  0
   -5.0260   13.2340  -11.1760 C   0  0  0  0  0  0  0  0  0  0  0  0
   -5.9040   13.6630  -12.3390 C   0  0  0  0  0  0  0  0  0  0  0  0
   -7.3290   13.3160  -11.9450 C   0  0  0  0  0  0  0  0  0  0  0  0
   -8.0240   12.8870  -13.2190 C   0  0  0  0  0  0  0  0  0  0  0  0
   -8.0470   14.1030  -14.1220 C   0  0  0  0  0  0  0  0  0  0  0  0
   -8.8440   13.6890  -15.3460 C   0  0  0  0  0  0  0  0  0  0  0  0
   -9.1670   14.8890  -16.2130 C   0  0  0  0  0  0  0  0  0  0  0  0
    1.6170   14.6120   -7.9610 O   0  0  0  0  0  0  0  0  0  0  0  0
   -9.3050   14.7060  -17.4520 O   0  0  0  0  0  0  0  0  0  0  0  0
   -9.3030   16.0260  -15.6840 O   0  0  0  0  0  0  0  0  0  0  0  0
  2  1  1  0
  3  2  1  0
  4  3  1  0
  5  4  1  0
  6  5  1  0
  7  6  1  0
  8  7  1  0
  9  8  1  0
 10  9  1  0
 11 10  1  0
 12 11  1  0
 13  1  1  0
 14 12  1  0
 15 12  1  0
M  END
$$$$
