
     RDKit          3D

 29 32  0  0  0  0  0  0  0  0999 V2000
  -16.5210   -2.9820   69.9090 O   0  0  0  0  0  0  0  0  0  0  0  0
  -15.9920   -2.0580   69.3000 C   0  0  0  0  0  0  0  0  0  0  0  0
  -15.7160   -2.1000   67.9980 N   0  0  0  0  0  0  0  0  0  0  0  0
  -16.0100   -3.1270   67.1620 C   0  0  0  0  0  0  0  0  0  0  0  0
  -15.6080   -2.9990   65.8280 C   0  0  0  0  0  0  0  0  0  0  0  0
  -15.9030   -4.0040   64.9740 C   0  0  0  0  0  0  0  0  0  0  0  0
  -16.5660   -5.0700   65.4310 N   0  0  0  0  0  0  0  0  0  0  0  0
  -16.9720   -5.2380   66.7010 C   0  0  0  0  0  0  0  0  0  0  0  0
  -16.7080   -4.2840   67.5970 C   0  0  0  0  0  0  0  0  0  0  0  0
  -15.6510   -0.8160   70.0060 C   0  0  1  0  0  0  0  0  0  0  0  0
  -16.7120   -0.5340   70.9880 N   0  0  0  0  0  0  0  0  0  0  0  0
  -18.2090    0.0390   70.4580 S   0  0  1  0  0  0  0  0  0  0  0  0
  -18.9520    0.2840   71.6410 O   0  0  0  0  0  0  0  0  0  0  0  0
  -17.8680    1.0870   69.5450 O   0  0  0  0  0  0  0  0  0  0  0  0
  -19.0880   -1.2130   69.5460 C   0  0  0  0  0  0  0  0  0  0  0  0
  -19.3630   -1.0380   68.1950 C   0  0  0  0  0  0  0  0  0  0  0  0
  -20.0520   -2.0340   67.4430 C   0  0  0  0  0  0  0  0  0  0  0  0
  -20.4700   -3.2140   68.0240 C   0  0  0  0  0  0  0  0  0  0  0  0
  -20.2160   -3.4630   69.4260 C   0  0  0  0  0  0  0  0  0  0  0  0
  -20.5280   -4.5220   70.1720 N   0  0  0  0  0  0  0  0  0  0  0  0
  -19.9910   -4.2200   71.6190 S   0  0  0  0  0  0  0  0  0  0  0  0
  -19.3390   -2.7980   71.4840 N   0  0  0  0  0  0  0  0  0  0  0  0
  -19.5030   -2.4300   70.2130 C   0  0  0  0  0  0  0  0  0  0  0  0
  -14.2760   -0.9790   70.6020 C   0  0  0  0  0  0  0  0  0  0  0  0
  -13.2300   -0.1870   70.0940 C   0  0  0  0  0  0  0  0  0  0  0  0
  -11.9310   -0.3230   70.6180 C   0  0  0  0  0  0  0  0  0  0  0  0
  -11.6780   -1.2500   71.6460 C   0  0  0  0  0  0  0  0  0  0  0  0
  -12.7250   -2.0480   72.1550 C   0  0  0  0  0  0  0  0  0  0  0  0
  -14.0220   -1.9130   71.6340 C   0  0  0  0  0  0  0  0  0  0  0  0
  2  1  1  0
  3  2  1  0
  4  3  1  0
  5  4  1  0
  6  5  1  0
  7  6  1  0
  8  7  1  0
  9  8  1  0
  9  4  1  0
 10  2  1  0
 10 11  1  1
 12 11  1  0
 12 13  1  1
 14 12  1  0
 15 12  1  0
 16 15  1  0
 17 16  1  0
 18 17  1  0
 19 18  1  0
 20 19  1  0
 21 20  1  0
 22 21  1  0
 23 19  1  0
 23 15  1  0
 23 22  1  0
 24 10  1  0
 25 24  1  0
 26 25  1  0
 27 26  1  0
 28 27  1  0
 29 24  1  0
 29 28  1  0
M  END
$$$$
