
     RDKit          3D

 24 25  0  0  0  0  0  0  0  0999 V2000
  -18.3850    0.3360   68.8500 O   0  0  0  0  0  0  0  0  0  0  0  0
  -18.1670   -0.4470   69.7440 C   0  0  0  0  0  0  0  0  0  0  0  0
  -19.3930   -1.0120   70.4180 C   0  0  2  0  0  0  0  0  0  0  0  0
  -19.9850   -0.1870   71.5500 C   0  0  0  0  0  0  0  0  0  0  0  0
  -21.1750   -0.9100   72.1830 C   0  0  0  0  0  0  0  0  0  0  0  0
  -21.6820   -2.1080   71.3810 C   0  0  2  0  0  0  0  0  0  0  0  0
  -22.8040   -2.8020   72.1430 C   0  0  0  0  0  0  0  0  0  0  0  0
  -20.5640   -3.1110   71.0800 C   0  0  0  0  0  0  0  0  0  0  0  0
  -19.2030   -2.4600   70.8460 C   0  0  0  0  0  0  0  0  0  0  0  0
  -16.9130   -0.8220   70.0600 N   0  0  0  0  0  0  0  0  0  0  0  0
  -15.7970   -0.2620   69.2780 C   0  0  1  0  0  0  0  0  0  0  0  0
  -14.4890   -0.3220   70.0680 C   0  0  0  0  0  0  0  0  0  0  0  0
  -14.3990    0.8890   71.0000 C   0  0  0  0  0  0  0  0  0  0  0  0
  -12.8370    1.0090   71.8330 S   0  0  0  0  0  0  0  0  0  0  0  0
  -13.0510   -0.1820   73.1180 C   0  0  0  0  0  0  0  0  0  0  0  0
  -15.7100   -1.0290   67.9660 C   0  0  0  0  0  0  0  0  0  0  0  0
  -15.1960   -0.5360   66.9720 O   0  0  0  0  0  0  0  0  0  0  0  0
  -16.2610   -2.2480   68.0230 N   0  0  0  0  0  0  0  0  0  0  0  0
  -16.4170   -3.2150   67.0140 C   0  0  0  0  0  0  0  0  0  0  0  0
  -15.8330   -3.1710   65.7450 C   0  0  0  0  0  0  0  0  0  0  0  0
  -16.1010   -4.1950   64.8150 C   0  0  0  0  0  0  0  0  0  0  0  0
  -16.9380   -5.1870   65.1290 N   0  0  0  0  0  0  0  0  0  0  0  0
  -17.4950   -5.2420   66.3500 C   0  0  0  0  0  0  0  0  0  0  0  0
  -17.2580   -4.2590   67.3090 C   0  0  0  0  0  0  0  0  0  0  0  0
  2  1  1  0
  3  2  1  1
  4  3  1  0
  5  4  1  0
  6  5  1  0
  6  7  1  1
  8  6  1  0
  9  3  1  0
  9  8  1  0
 10  2  1  0
 11 10  1  0
 11 12  1  1
 13 12  1  0
 14 13  1  0
 15 14  1  0
 16 11  1  0
 17 16  1  0
 18 16  1  0
 19 18  1  0
 20 19  1  0
 21 20  1  0
 22 21  1  0
 23 22  1  0
 24 23  1  0
 24 19  1  0
M  END
$$$$
