
     RDKit          3D

 24 25  0  0  0  0  0  0  0  0999 V2000
  -14.9180   -0.8710   68.7530 O   0  0  0  0  0  0  0  0  0  0  0  0
  -15.5420   -1.7310   68.1440 C   0  0  2  0  0  0  0  0  0  0  0  0
  -15.2280   -2.1420   66.9310 N   0  0  0  0  0  0  0  0  0  0  0  0
  -15.8450   -3.1680   66.2110 C   0  0  1  0  0  0  0  0  0  0  0  0
  -15.4810   -3.3180   64.8870 C   0  0  0  0  0  0  0  0  0  0  0  0
  -15.9880   -4.3600   64.1070 C   0  0  0  0  0  0  0  0  0  0  0  0
  -16.8100   -5.2590   64.6390 N   0  0  0  0  0  0  0  0  0  0  0  0
  -17.1690   -5.1480   65.9400 C   0  0  0  0  0  0  0  0  0  0  0  0
  -16.7000   -4.1170   66.7630 C   0  0  0  0  0  0  0  0  0  0  0  0
  -16.7220   -2.2740   68.7300 O   0  0  0  0  0  0  0  0  0  0  0  0
  -17.0790   -1.8340   70.0500 C   0  0  0  0  0  0  0  0  0  0  0  0
  -18.4670   -2.3590   70.3660 C   0  0  0  0  0  0  0  0  0  0  0  0
  -18.4820   -3.8830   70.2910 C   0  0  0  0  0  0  0  0  0  0  0  0
  -19.8720   -4.2970   70.3770 N   0  0  0  0  0  0  0  0  0  0  0  0
  -20.6300   -4.8080   69.1550 S   0  0  2  0  0  0  0  0  0  0  0  0
  -21.8220   -5.4930   69.6850 O   0  0  0  0  0  0  0  0  0  0  0  0
  -19.7610   -5.6470   68.3010 O   0  0  0  0  0  0  0  0  0  0  0  0
  -21.0470   -3.5120   68.2860 C   0  0  0  0  0  0  0  0  0  0  0  0
  -20.4340   -3.2590   67.0620 C   0  0  0  0  0  0  0  0  0  0  0  0
  -20.8110   -2.1120   66.3820 C   0  0  0  0  0  0  0  0  0  0  0  0
  -21.7800   -1.2810   66.9370 C   0  0  0  0  0  0  0  0  0  0  0  0
  -22.1860   -0.0410   66.1860 C   0  0  0  0  0  0  0  0  0  0  0  0
  -22.3230   -1.5580   68.0810 C   0  0  0  0  0  0  0  0  0  0  0  0
  -21.9950   -2.6080   68.7620 C   0  0  0  0  0  0  0  0  0  0  0  0
  2  1  1  6
  3  2  1  0
  4  3  1  1
  5  4  1  0
  6  5  1  0
  7  6  1  0
  8  7  1  0
  9  8  1  0
  9  4  1  0
 10  2  1  0
 11 10  1  0
 12 11  1  0
 13 12  1  0
 14 13  1  0
 15 14  1  0
 15 16  1  1
 17 15  1  0
 18 15  1  0
 19 18  1  0
 20 19  1  0
 21 20  1  0
 22 21  1  0
 23 21  1  0
 24 23  1  0
 24 18  1  0
M  END
$$$$
