
     RDKit          3D

 27 27  0  0  0  0  0  0  0  0999 V2000
   14.4090    7.2880   15.8920 C   0  0  0  0  0  0  0  0  0  0  0  0
   15.3460    6.2500   15.1880 C   0  0  1  0  0  0  0  0  0  0  0  0
   16.1910    6.9340   14.1200 C   0  0  2  0  0  0  0  0  0  0  0  0
   15.3380    7.6950   13.0370 C   0  0  1  0  0  0  0  0  0  0  0  0
   16.2640    8.7080   12.2550 C   0  0  2  0  0  0  0  0  0  0  0  0
   15.7740    9.7330   11.1720 C   0  0  2  0  0  0  0  0  0  0  0  0
   14.6570   10.5980   11.8330 C   0  0  0  0  0  0  0  0  0  0  0  0
   14.9990   11.3330   13.1930 C   0  0  2  0  0  0  0  0  0  0  0  0
   13.8120   12.1550   13.7490 C   0  0  0  0  0  0  0  0  0  0  0  0
   12.4750   11.3860   13.9730 C   0  0  1  0  0  0  0  0  0  0  0  0
   12.7320   10.1450   14.9440 C   0  0  2  0  0  0  0  0  0  0  0  0
   11.5850    9.1780   15.3510 C   0  0  2  0  0  0  0  0  0  0  0  0
   12.0300    8.0180   16.3180 C   0  0  1  0  0  0  0  0  0  0  0  0
   10.8530    7.0920   16.7260 C   0  0  0  0  0  0  0  0  0  0  0  0
   11.2300    5.9600   17.6830 C   0  0  0  0  0  0  0  0  0  0  0  0
   13.0390    7.1600   15.7240 O   0  0  0  0  0  0  0  0  0  0  0  0
   14.8490    8.2170   16.5930 O   0  0  0  0  0  0  0  0  0  0  0  0
   16.2340    5.5550   16.2160 C   0  0  0  0  0  0  0  0  0  0  0  0
   17.0520    5.9430   13.4990 O   0  0  0  0  0  0  0  0  0  0  0  0
   14.6510    6.6460   12.1050 C   0  0  0  0  0  0  0  0  0  0  0  0
   17.3190    7.9460   11.6110 O   0  0  0  0  0  0  0  0  0  0  0  0
   15.1910    9.1050    9.8880 C   0  0  0  0  0  0  0  0  0  0  0  0
   16.2270   12.2270   13.0380 C   0  0  0  0  0  0  0  0  0  0  0  0
   13.9260   13.3600   14.0110 O   0  0  0  0  0  0  0  0  0  0  0  0
   11.4040   12.3430   14.5450 C   0  0  0  0  0  0  0  0  0  0  0  0
   13.3360   10.6480   16.1810 O   0  0  0  0  0  0  0  0  0  0  0  0
   10.9200    8.6170   14.0570 C   0  0  0  0  0  0  0  0  0  0  0  0
  2  1  1  0
  3  2  1  0
  4  3  1  0
  5  4  1  0
  6  5  1  0
  7  6  1  0
  8  7  1  0
  9  8  1  0
 10  9  1  0
 11 10  1  0
 12 11  1  0
 13 12  1  0
 13 14  1  6
 15 14  1  0
 16 13  1  0
 16  1  1  0
 17  1  1  0
  2 18  1  1
  3 19  1  6
  4 20  1  6
  5 21  1  6
  6 22  1  6
  8 23  1  6
 24  9  1  0
 10 25  1  1
 11 26  1  1
 12 27  1  6
M  END
$$$$
