
     RDKit          3D

 14 14  0  0  0  0  0  0  0  0999 V2000
   10.2350   12.5520   29.0420 C   0  0  1  0  0  0  0  0  0  0  0  0
    7.8360   14.0450   34.6450 O   0  0  0  0  0  0  0  0  0  0  0  0
   10.0680   11.7320   27.7340 C   0  0  0  0  0  0  0  0  0  0  0  0
    8.8550   12.1340   26.8160 C   0  0  0  0  0  0  0  0  0  0  0  0
    7.8580   13.0750   27.5540 C   0  0  0  0  0  0  0  0  0  0  0  0
    7.7880   12.8720   29.1060 C   0  0  0  0  0  0  0  0  0  0  0  0
    8.9150   12.7010   29.8800 C   0  0  0  0  0  0  0  0  0  0  0  0
    8.9550   12.6270   31.4300 C   0  0  0  0  0  0  0  0  0  0  0  0
    8.5520   13.5850   32.3530 C   0  0  0  0  0  0  0  0  0  0  0  0
    8.6710   13.5700   33.8950 C   0  0  1  0  0  0  0  0  0  0  0  0
   11.3160   11.9860   30.0000 C   0  0  0  0  0  0  0  0  0  0  0  0
   10.6830   13.9260   28.5150 C   0  0  0  0  0  0  0  0  0  0  0  0
    6.4290   12.8200   29.7300 C   0  0  0  0  0  0  0  0  0  0  0  0
    9.8940   13.0130   34.5510 C   0  0  0  0  0  0  0  0  0  0  0  0
  3  1  1  0
  4  3  1  0
  5  4  1  0
  6  5  1  0
  7  6  1  0
  7  1  1  0
  8  7  1  0
  9  8  1  0
 10  9  1  0
 10  2  1  0
  1 11  1  1
 12  1  1  0
 13  6  1  0
 10 14  1  6
M  END
$$$$
