
     RDKit          3D

 29 31  0  0  0  0  0  0  0  0999 V2000
  -13.8650  -17.0970   -7.9950 C   0  0  2  0  0  0  0  0  0  0  0  0
  -18.6870  -19.7730   -6.1790 C   0  0  2  0  0  0  0  0  0  0  0  0
  -20.0420  -20.2820   -5.7320 C   0  0  2  0  0  0  0  0  0  0  0  0
  -20.0020  -19.1570   -3.5910 C   0  0  1  0  0  0  0  0  0  0  0  0
  -14.6520  -17.3830   -5.7480 C   0  0  0  0  0  0  0  0  0  0  0  0
  -14.5640  -16.7160   -4.5110 C   0  0  0  0  0  0  0  0  0  0  0  0
  -15.5750  -16.7910   -3.5830 C   0  0  0  0  0  0  0  0  0  0  0  0
  -16.6940  -17.5590   -3.9060 C   0  0  0  0  0  0  0  0  0  0  0  0
  -18.6530  -18.6370   -3.9550 C   0  0  0  0  0  0  0  0  0  0  0  0
  -18.0510  -18.9040   -5.1440 C   0  0  0  0  0  0  0  0  0  0  0  0
  -16.7930  -18.2320   -5.1430 C   0  0  0  0  0  0  0  0  0  0  0  0
  -15.7530  -18.1450   -6.0790 C   0  0  0  0  0  0  0  0  0  0  0  0
  -17.8480  -17.8160   -3.1950 N   0  0  0  0  0  0  0  0  0  0  0  0
  -20.7300  -19.3360   -4.8450 N   0  0  0  0  0  0  0  0  0  0  0  0
  -13.5860  -17.2470   -6.6070 O   0  0  0  0  0  0  0  0  0  0  0  0
  -13.0450  -17.1990   -8.4990 H   0  0  0  0  0  0  0  0  0  0  0  0
  -14.2370  -16.2170   -8.1560 H   0  0  0  0  0  0  0  0  0  0  0  0
  -14.4990  -17.7730   -8.2770 H   0  0  0  0  0  0  0  0  0  0  0  0
  -18.7860  -19.2730   -7.0090 H   0  0  0  0  0  0  0  0  0  0  0  0
  -18.1030  -20.5390   -6.3600 H   0  0  0  0  0  0  0  0  0  0  0  0
  -19.9180  -21.1290   -5.2600 H   0  0  0  0  0  0  0  0  0  0  0  0
  -20.5960  -20.4480   -6.5220 H   0  0  0  0  0  0  0  0  0  0  0  0
  -19.9280  -20.0090   -3.1290 H   0  0  0  0  0  0  0  0  0  0  0  0
  -20.4760  -18.5290   -3.0220 H   0  0  0  0  0  0  0  0  0  0  0  0
  -13.7940  -16.2060   -4.3170 H   0  0  0  0  0  0  0  0  0  0  0  0
  -15.5130  -16.3410   -2.7570 H   0  0  0  0  0  0  0  0  0  0  0  0
  -15.8080  -18.5940   -6.9050 H   0  0  0  0  0  0  0  0  0  0  0  0
  -18.0400  -17.5170   -2.4030 H   0  0  0  0  0  0  0  0  0  0  0  0
  -20.8630  -18.5680   -5.2760 H   0  0  0  0  0  0  0  0  0  0  0  0
  3  2  1  0
  6  5  1  0
  7  6  1  0
  8  7  1  0
  9  4  1  0
 10  2  1  0
 10  9  1  0
 11 10  1  0
 11  8  1  0
 12 11  1  0
 12  5  1  0
 13  9  1  0
 13  8  1  0
 14  3  1  0
 14  4  1  0
 15  5  1  0
 15  1  1  0
  1 16  1  6
 17  1  1  0
 18  1  1  0
  2 19  1  6
 20  2  1  0
  3 21  1  1
 22  3  1  0
  4 23  1  1
 24  4  1  0
 25  6  1  0
 26  7  1  0
 27 12  1  0
 28 13  1  0
 29 14  1  0
M  END
$$$$
