
     RDKit          3D

 12 13  0  0  0  0  0  0  0  0999 V2000
    0.2230  -13.9130   22.4780 O   0  0  0  0  0  0  0  0  0  0  0  0
   -0.9170  -13.8160   23.0120 C   0  0  2  0  0  0  0  0  0  0  0  0
   -0.9710  -13.1870   24.1250 O   0  0  0  0  0  0  0  0  0  0  0  0
   -2.1150  -14.4900   22.3650 C   0  0  1  0  0  0  0  0  0  0  0  0
   -1.9270  -15.4920   21.2920 C   0  0  0  0  0  0  0  0  0  0  0  0
   -3.0770  -16.0930   20.7670 C   0  0  0  0  0  0  0  0  0  0  0  0
   -4.2530  -15.7620   21.3560 C   0  0  2  0  0  0  0  0  0  0  0  0
   -5.5580  -16.2750   20.8720 C   0  0  0  0  0  0  0  0  0  0  0  0
   -6.5510  -15.5950   21.7880 C   0  0  0  0  0  0  0  0  0  0  0  0
   -5.7480  -14.7780   22.6160 N   0  0  0  0  0  0  0  0  0  0  0  0
   -4.4440  -14.8850   22.3350 C   0  0  0  0  0  0  0  0  0  0  0  0
   -3.4260  -14.2000   22.8720 C   0  0  0  0  0  0  0  0  0  0  0  0
  2  1  1  1
  3  2  1  0
  4  2  1  0
  4  5  1  1
  6  5  1  0
  7  6  1  6
  8  7  1  0
  9  8  1  0
 10  9  1  0
 11 10  1  0
 11  7  1  0
 12 11  1  0
 12  4  1  0
M  END
$$$$
