
     RDKit          3D

 23 23  0  0  0  0  0  0  0  0999 V2000
    4.7120    5.4720   17.1670 C   0  0  0  0  0  0  0  0  0  0  0  0
    2.8010   -0.2700   19.4450 C   0  0  1  0  0  0  0  0  0  0  0  0
    4.2440    0.0080   19.0860 C   0  0  1  0  0  0  0  0  0  0  0  0
    4.7540   -1.0090   18.0910 C   0  0  1  0  0  0  0  0  0  0  0  0
    4.3930    1.4490   18.6070 C   0  0  0  0  0  0  0  0  0  0  0  0
    5.3450    2.3030   19.1520 C   0  0  0  0  0  0  0  0  0  0  0  0
    5.4490    3.6010   18.6880 C   0  0  0  0  0  0  0  0  0  0  0  0
    4.6240    4.0610   17.6660 C   0  0  0  0  0  0  0  0  0  0  0  0
    3.6760    3.2030   17.1240 C   0  0  0  0  0  0  0  0  0  0  0  0
    3.5710    1.9150   17.5950 C   0  0  0  0  0  0  0  0  0  0  0  0
    3.7870    5.9300   16.4250 O   0  0  0  0  0  0  0  0  0  0  0  0
    5.6810    6.1960   17.5000 O   0  0  0  0  0  0  0  0  0  0  0  0
    2.2460   -0.2110   18.6400 H   0  0  0  0  0  0  0  0  0  0  0  0
    2.7270   -1.1690   19.8280 H   0  0  0  0  0  0  0  0  0  0  0  0
    2.4950    0.3900   20.1020 H   0  0  0  0  0  0  0  0  0  0  0  0
    4.7730   -0.0870   19.9000 H   0  0  0  0  0  0  0  0  0  0  0  0
    4.1890   -0.9950   17.2900 H   0  0  0  0  0  0  0  0  0  0  0  0
    5.6770   -0.7890   17.8430 H   0  0  0  0  0  0  0  0  0  0  0  0
    4.7280   -1.9020   18.4930 H   0  0  0  0  0  0  0  0  0  0  0  0
    5.9330    1.9900   19.8660 H   0  0  0  0  0  0  0  0  0  0  0  0
    6.1140    4.2000   19.0770 H   0  0  0  0  0  0  0  0  0  0  0  0
    3.0820    3.5150   16.4150 H   0  0  0  0  0  0  0  0  0  0  0  0
    2.9060    1.3160   17.2050 H   0  0  0  0  0  0  0  0  0  0  0  0
  3  2  1  0
  4  3  1  0
  5  3  1  0
  6  5  1  0
  7  6  1  0
  8  7  1  0
  8  1  1  0
  9  8  1  0
 10  9  1  0
 10  5  1  0
 11  1  1  0
 12  1  1  0
  2 13  1  6
 14  2  1  0
 15  2  1  0
  3 16  1  1
  4 17  1  6
 18  4  1  0
 19  4  1  0
 20  6  1  0
 21  7  1  0
 22  9  1  0
 23 10  1  0
M  END
$$$$
