
     RDKit          3D

 21 21  0  0  0  0  0  0  0  0999 V2000
    4.6410    5.6220   17.0560 C   0  0  0  0  0  0  0  0  0  0  0  0
    4.0020   -1.8800   19.3950 C   0  0  2  0  0  0  0  0  0  0  0  0
    3.6070   -0.5610   18.7680 C   0  0  1  0  0  0  0  0  0  0  0  0
    4.6410    0.3490   19.1230 O   0  0  0  0  0  0  0  0  0  0  0  0
    4.6150    1.6440   18.5920 C   0  0  0  0  0  0  0  0  0  0  0  0
    5.5330    2.5800   19.0650 C   0  0  0  0  0  0  0  0  0  0  0  0
    5.5200    3.8630   18.5750 C   0  0  0  0  0  0  0  0  0  0  0  0
    4.6140    4.2080   17.5850 C   0  0  0  0  0  0  0  0  0  0  0  0
    3.7040    3.2710   17.0940 C   0  0  0  0  0  0  0  0  0  0  0  0
    3.7230    1.9770   17.6000 C   0  0  0  0  0  0  0  0  0  0  0  0
    3.6970    6.0260   16.3130 O   0  0  0  0  0  0  0  0  0  0  0  0
    5.6150    6.3620   17.3700 O   0  0  0  0  0  0  0  0  0  0  0  0
    3.3430   -2.5650   19.1560 H   0  0  0  0  0  0  0  0  0  0  0  0
    4.0330   -1.7830   20.3690 H   0  0  0  0  0  0  0  0  0  0  0  0
    4.8850   -2.1470   19.0650 H   0  0  0  0  0  0  0  0  0  0  0  0
    3.5530   -0.6510   17.7940 H   0  0  0  0  0  0  0  0  0  0  0  0
    2.7480   -0.2570   19.1300 H   0  0  0  0  0  0  0  0  0  0  0  0
    6.1610    2.3340   19.7700 H   0  0  0  0  0  0  0  0  0  0  0  0
    6.1560    4.5220   18.9110 H   0  0  0  0  0  0  0  0  0  0  0  0
    3.0690    3.5180   16.3950 H   0  0  0  0  0  0  0  0  0  0  0  0
    3.0860    1.3140   17.2730 H   0  0  0  0  0  0  0  0  0  0  0  0
  3  2  1  0
  4  3  1  0
  5  4  1  0
  6  5  1  0
  7  6  1  0
  8  1  1  0
  8  7  1  0
  9  8  1  0
 10  9  1  0
 10  5  1  0
 11  1  1  0
 12  1  1  0
  2 13  1  1
 14  2  1  0
 15  2  1  0
  3 16  1  6
 17  3  1  0
 18  6  1  0
 19  7  1  0
 20  9  1  0
 21 10  1  0
M  END
$$$$
