
     RDKit          3D

 11 11  0  0  0  0  0  0  0  0999 V2000
    4.6930    5.1730   17.1410 C   0  0  0  0  0  0  0  0  0  0  0  0
    4.8410    3.8360   17.8660 C   0  0  0  0  0  0  0  0  0  0  0  0
    5.7930    3.6950   18.8680 C   0  0  0  0  0  0  0  0  0  0  0  0
    5.9310    2.4850   19.5330 C   0  0  0  0  0  0  0  0  0  0  0  0
    5.1110    1.4180   19.1890 C   0  0  0  0  0  0  0  0  0  0  0  0
    4.1500    1.5610   18.1910 C   0  0  0  0  0  0  0  0  0  0  0  0
    3.2330   -0.5190   18.8050 C   0  0  0  0  0  0  0  0  0  0  0  0
    4.0170    2.7710   17.5250 C   0  0  0  0  0  0  0  0  0  0  0  0
    5.5420    6.0820   17.3350 O   0  0  0  0  0  0  0  0  0  0  0  0
    3.7230    5.3710   16.3610 O   0  0  0  0  0  0  0  0  0  0  0  0
    3.3250    0.4880   17.8360 O   0  0  0  0  0  0  0  0  0  0  0  0
  2  1  1  0
  3  2  1  0
  4  3  1  0
  5  4  1  0
  6  5  1  0
  8  6  1  0
  8  2  1  0
  9  1  1  0
 10  1  1  0
 11  7  1  0
 11  6  1  0
M  END
$$$$
