
     RDKit          3D

 21 22  0  0  0  0  0  0  0  0999 V2000
  -19.6800  -20.6230   -5.1870 C   0  0  1  0  0  0  0  0  0  0  0  0
  -15.2390  -17.5990   -5.2810 C   0  0  0  0  0  0  0  0  0  0  0  0
  -18.7220  -19.7560   -4.4240 C   0  0  0  0  0  0  0  0  0  0  0  0
  -16.9650  -18.3940   -3.8730 C   0  0  0  0  0  0  0  0  0  0  0  0
  -17.5550  -19.0980   -4.9440 C   0  0  0  0  0  0  0  0  0  0  0  0
  -16.9500  -19.0330   -6.2050 C   0  0  0  0  0  0  0  0  0  0  0  0
  -18.7850  -19.4310   -3.0980 C   0  0  0  0  0  0  0  0  0  0  0  0
  -15.8040  -17.6380   -4.0270 C   0  0  0  0  0  0  0  0  0  0  0  0
  -15.8030  -18.2860   -6.3560 C   0  0  0  0  0  0  0  0  0  0  0  0
  -20.9860  -19.9840   -5.3770 N   0  0  0  0  0  0  0  0  0  0  0  0
  -17.7370  -18.6150   -2.7630 N   0  0  0  0  0  0  0  0  0  0  0  0
  -19.3080  -20.8310   -6.0680 H   0  0  0  0  0  0  0  0  0  0  0  0
  -19.8160  -21.4660   -4.7100 H   0  0  0  0  0  0  0  0  0  0  0  0
  -14.4550  -17.0970   -5.4150 H   0  0  0  0  0  0  0  0  0  0  0  0
  -17.3240  -19.4950   -6.9380 H   0  0  0  0  0  0  0  0  0  0  0  0
  -19.4510  -19.7240   -2.4950 H   0  0  0  0  0  0  0  0  0  0  0  0
  -15.4230  -17.1740   -3.3010 H   0  0  0  0  0  0  0  0  0  0  0  0
  -15.3890  -18.2370   -7.2030 H   0  0  0  0  0  0  0  0  0  0  0  0
  -20.8030  -19.2010   -5.7900 H   0  0  0  0  0  0  0  0  0  0  0  0
  -21.4120  -20.5100   -5.9760 H   0  0  0  0  0  0  0  0  0  0  0  0
  -17.5860  -18.2870   -1.9640 H   0  0  0  0  0  0  0  0  0  0  0  0
  3  1  1  0
  5  4  1  0
  5  3  1  0
  6  5  1  0
  7  3  1  0
  8  4  1  0
  8  2  1  0
  9  6  1  0
  9  2  1  0
 10  1  1  0
 11  7  1  0
 11  4  1  0
  1 12  1  6
 13  1  1  0
 14  2  1  0
 15  6  1  0
 16  7  1  0
 17  8  1  0
 18  9  1  0
 19 10  1  0
 20 10  1  0
 21 11  1  0
M  END
$$$$
