
     RDKit          3D

 10 10  0  0  0  0  0  0  0  0999 V2000
    5.5620    5.6590   17.6190 O   0  0  0  0  0  0  0  0  0  0  0  0
    4.5780    4.9740   17.2330 C   0  0  0  0  0  0  0  0  0  0  0  0
    3.6860    5.4850   16.4940 O   0  0  0  0  0  0  0  0  0  0  0  0
    4.4490    3.5190   17.6740 C   0  0  0  0  0  0  0  0  0  0  0  0
    5.2780    3.0130   18.6670 C   0  0  0  0  0  0  0  0  0  0  0  0
    5.1510    1.6900   19.0680 C   0  0  0  0  0  0  0  0  0  0  0  0
    4.1870    0.8810   18.4800 C   0  0  0  0  0  0  0  0  0  0  0  0
    4.0400   -0.5810   18.9050 C   0  0  0  0  0  0  0  0  0  0  0  0
    3.3640    1.3930   17.4890 C   0  0  0  0  0  0  0  0  0  0  0  0
    3.4930    2.7130   17.0770 C   0  0  0  0  0  0  0  0  0  0  0  0
  2  1  1  0
  3  2  1  0
  4  2  1  0
  5  4  1  0
  6  5  1  0
  7  6  1  0
  8  7  1  0
  9  7  1  0
 10  9  1  0
 10  4  1  0
M  END
$$$$
