
     RDKit          3D

 12 12  0  0  0  0  0  0  0  0999 V2000
    4.6680    5.0910   17.1770 C   0  0  0  0  0  0  0  0  0  0  0  0
    3.6590   -1.6890   19.1570 C   0  0  0  0  0  0  0  0  0  0  0  0
    3.8990   -0.7400   17.9860 C   0  0  0  0  0  0  0  0  0  0  0  0
    4.1680    1.5520   18.4660 C   0  0  0  0  0  0  0  0  0  0  0  0
    5.2140    1.4380   19.3690 C   0  0  0  0  0  0  0  0  0  0  0  0
    6.0870    2.4950   19.5610 C   0  0  0  0  0  0  0  0  0  0  0  0
    5.9090    3.6740   18.8550 C   0  0  0  0  0  0  0  0  0  0  0  0
    4.8630    3.7910   17.9540 C   0  0  0  0  0  0  0  0  0  0  0  0
    3.9920    2.7310   17.7590 C   0  0  0  0  0  0  0  0  0  0  0  0
    3.2840    0.4830   18.2750 O   0  0  0  0  0  0  0  0  0  0  0  0
    5.5960    5.9390   17.1190 O   0  0  0  0  0  0  0  0  0  0  0  0
    3.5750    5.3120   16.5950 O   0  0  0  0  0  0  0  0  0  0  0  0
  3  2  1  0
  5  4  1  0
  6  5  1  0
  7  6  1  0
  8  1  1  0
  8  7  1  0
  9  8  1  0
  9  4  1  0
 10  4  1  0
 10  3  1  0
 11  1  1  0
 12  1  1  0
M  END
$$$$
