
     RDKit          3D

 15 16  0  0  0  0  0  0  0  0999 V2000
    4.3830   -2.0170   19.3240 C   0  0  0  0  0  0  0  0  0  0  0  0
    4.5290   -0.6230   19.3210 C   0  0  0  0  0  0  0  0  0  0  0  0
    4.4680    0.0120   18.0950 C   0  0  0  0  0  0  0  0  0  0  0  0
    4.2710   -0.7670   16.9520 C   0  0  0  0  0  0  0  0  0  0  0  0
    4.1950   -2.7250   18.1510 C   0  0  0  0  0  0  0  0  0  0  0  0
    4.6190    1.5300   17.9000 C   0  0  0  0  0  0  0  0  0  0  0  0
    3.7790    2.1160   16.9570 C   0  0  0  0  0  0  0  0  0  0  0  0
    3.8290    3.4740   16.6860 C   0  0  0  0  0  0  0  0  0  0  0  0
    4.7460    4.2390   17.3840 C   0  0  0  0  0  0  0  0  0  0  0  0
    5.6040    3.6890   18.3500 C   0  0  0  0  0  0  0  0  0  0  0  0
    5.5470    2.3140   18.6120 C   0  0  0  0  0  0  0  0  0  0  0  0
    4.7690    5.7090   17.0340 C   0  0  0  0  0  0  0  0  0  0  0  0
    4.1280   -2.0650   17.0130 N   0  0  0  0  0  0  0  0  0  0  0  0
    3.8020    6.1380   16.3640 O   0  0  0  0  0  0  0  0  0  0  0  0
    5.7560    6.3840   17.3770 O   0  0  0  0  0  0  0  0  0  0  0  0
  2  1  1  0
  3  2  1  0
  4  3  1  0
  5  1  1  0
  6  3  1  0
  7  6  1  0
  8  7  1  0
  9  8  1  0
 10  9  1  0
 11  6  1  0
 11 10  1  0
 12  9  1  0
 13  5  1  0
 13  4  1  0
 14 12  1  0
 15 12  1  0
M  END
$$$$
