
     RDKit          3D

 13 13  0  0  0  0  0  0  0  0999 V2000
    3.0850    1.5940   17.7920 C   0  0  0  0  0  0  0  0  0  0  0  0
    4.1940    5.1670   17.2430 C   0  0  0  0  0  0  0  0  0  0  0  0
    2.5960    0.3520   21.4580 C   0  0  0  0  0  0  0  0  0  0  0  0
    2.5890   -0.4840   20.1610 C   0  0  2  0  0  0  0  0  0  0  0  0
    2.4750   -1.9560   20.5480 C   0  0  0  0  0  0  0  0  0  0  0  0
    3.8330   -0.2720   19.2990 C   0  0  0  0  0  0  0  0  0  0  0  0
    3.9590    1.1730   18.7900 C   0  0  0  0  0  0  0  0  0  0  0  0
    4.9250    2.0460   19.2990 C   0  0  0  0  0  0  0  0  0  0  0  0
    5.0230    3.3500   18.8060 C   0  0  0  0  0  0  0  0  0  0  0  0
    4.1510    3.7540   17.8020 C   0  0  0  0  0  0  0  0  0  0  0  0
    3.1840    2.8910   17.2920 C   0  0  0  0  0  0  0  0  0  0  0  0
    3.2400    5.5350   16.4980 O   0  0  0  0  0  0  0  0  0  0  0  0
    5.1600    5.9330   17.5310 O   0  0  0  0  0  0  0  0  0  0  0  0
  4  3  1  1
  5  4  1  0
  6  4  1  0
  7  6  1  0
  7  1  1  0
  8  7  1  0
  9  8  1  0
 10  9  1  0
 10  2  1  0
 11 10  1  0
 11  1  1  0
 12  2  1  0
 13  2  1  0
M  END
$$$$
