
     RDKit          3D

 25 27  0  0  0  0  0  0  0  0999 V2000
  -14.2500  -16.3050   -4.3080 C   0  0  0  0  0  0  0  0  0  0  0  0
  -19.3810  -20.2500   -5.7480 C   0  0  2  0  0  0  0  0  0  0  0  0
  -18.0960  -19.6040   -6.2270 C   0  0  2  0  0  0  0  0  0  0  0  0
  -14.1360  -17.1020   -5.4490 C   0  0  0  0  0  0  0  0  0  0  0  0
  -15.1730  -17.9060   -5.8650 C   0  0  0  0  0  0  0  0  0  0  0  0
  -16.3540  -17.9210   -5.1160 C   0  0  0  0  0  0  0  0  0  0  0  0
  -17.6030  -18.6040   -5.2330 C   0  0  0  0  0  0  0  0  0  0  0  0
  -18.3870  -18.1960   -4.1970 C   0  0  0  0  0  0  0  0  0  0  0  0
  -16.4460  -17.1120   -3.9600 C   0  0  0  0  0  0  0  0  0  0  0  0
  -15.3980  -16.2920   -3.5510 C   0  0  0  0  0  0  0  0  0  0  0  0
  -19.7790  -18.6880   -3.9460 C   0  0  1  0  0  0  0  0  0  0  0  0
  -17.6950  -17.3020   -3.4090 N   0  0  0  0  0  0  0  0  0  0  0  0
  -20.3150  -19.2710   -5.1770 N   0  0  0  0  0  0  0  0  0  0  0  0
  -13.5240  -15.7640   -4.0500 H   0  0  0  0  0  0  0  0  0  0  0  0
  -19.1660  -20.9240   -5.0700 H   0  0  0  0  0  0  0  0  0  0  0  0
  -19.8110  -20.7020   -6.5040 H   0  0  0  0  0  0  0  0  0  0  0  0
  -18.2560  -19.1610   -7.0900 H   0  0  0  0  0  0  0  0  0  0  0  0
  -17.4140  -20.2990   -6.3630 H   0  0  0  0  0  0  0  0  0  0  0  0
  -13.3320  -17.0890   -5.9440 H   0  0  0  0  0  0  0  0  0  0  0  0
  -15.0920  -18.4380   -6.6390 H   0  0  0  0  0  0  0  0  0  0  0  0
  -15.4750  -15.7490   -2.7850 H   0  0  0  0  0  0  0  0  0  0  0  0
  -19.7800  -19.3610   -3.2450 H   0  0  0  0  0  0  0  0  0  0  0  0
  -20.3520  -17.9560   -3.6620 H   0  0  0  0  0  0  0  0  0  0  0  0
  -18.0010  -16.9250   -2.6880 H   0  0  0  0  0  0  0  0  0  0  0  0
  -20.5100  -18.6490   -5.7860 H   0  0  0  0  0  0  0  0  0  0  0  0
  3  2  1  0
  4  1  1  0
  5  4  1  0
  6  5  1  0
  7  3  1  0
  7  6  1  0
  8  7  1  0
  9  6  1  0
 10  9  1  0
 10  1  1  0
 11  8  1  0
 12  9  1  0
 12  8  1  0
 13  2  1  0
 13 11  1  0
 14  1  1  0
  2 15  1  1
 16  2  1  0
  3 17  1  6
 18  3  1  0
 19  4  1  0
 20  5  1  0
 21 10  1  0
 11 22  1  1
 23 11  1  0
 24 12  1  0
 25 13  1  0
M  END
$$$$
