
     RDKit          3D

 24 25  0  0  0  0  0  0  0  0999 V2000
    5.6320    5.8580   17.2850 O   0  0  0  0  0  0  0  0  0  0  0  0
    4.7030    5.1240   16.9210 C   0  0  2  0  0  0  0  0  0  0  0  0
    3.7440    5.5630   16.2110 O   0  0  0  0  0  0  0  0  0  0  0  0
    4.5540    3.7790   17.5710 C   0  0  1  0  0  0  0  0  0  0  0  0
    5.2880    3.4210   18.7080 C   0  0  0  0  0  0  0  0  0  0  0  0
    5.0490    2.2080   19.3420 C   0  0  0  0  0  0  0  0  0  0  0  0
    3.5680    2.9670   17.0800 C   0  0  0  0  0  0  0  0  0  0  0  0
    3.3340    1.7600   17.7170 C   0  0  0  0  0  0  0  0  0  0  0  0
    4.0860    1.3700   18.8120 C   0  0  2  0  0  0  0  0  0  0  0  0
    3.6850    0.0950   19.5190 C   0  0  1  0  0  0  0  0  0  0  0  0
    3.1840    0.2810   20.8130 C   0  0  0  0  0  0  0  0  0  0  0  0
    3.6240   -1.1350   18.9400 C   0  0  0  0  0  0  0  0  0  0  0  0
    2.7080   -0.8020   21.5590 C   0  0  0  0  0  0  0  0  0  0  0  0
    3.1560   -2.2040   19.6880 C   0  0  0  0  0  0  0  0  0  0  0  0
    2.7050   -2.0480   20.9860 C   0  0  0  0  0  0  0  0  0  0  0  0
    5.9360    3.9980   19.0410 H   0  0  0  0  0  0  0  0  0  0  0  0
    5.5310    1.9620   20.0980 H   0  0  0  0  0  0  0  0  0  0  0  0
    3.0610    3.2250   16.3450 H   0  0  0  0  0  0  0  0  0  0  0  0
    2.6630    1.2000   17.4010 H   0  0  0  0  0  0  0  0  0  0  0  0
    3.1930    1.1310   21.1910 H   0  0  0  0  0  0  0  0  0  0  0  0
    3.9290   -1.2630   18.0700 H   0  0  0  0  0  0  0  0  0  0  0  0
    2.4130   -0.6820   22.4330 H   0  0  0  0  0  0  0  0  0  0  0  0
    3.1540   -3.0530   19.3090 H   0  0  0  0  0  0  0  0  0  0  0  0
    2.4010   -2.7840   21.4670 H   0  0  0  0  0  0  0  0  0  0  0  0
  2  1  1  1
  3  2  1  0
  4  2  1  0
  4  5  1  1
  6  5  1  0
  7  4  1  0
  8  7  1  0
  9  8  1  1
  9  6  1  0
 10  9  1  0
 10 11  1  6
 12 10  1  0
 13 11  1  0
 14 12  1  0
 15 14  1  0
 15 13  1  0
 16  5  1  0
 17  6  1  0
 18  7  1  0
 19  8  1  0
 20 11  1  0
 21 12  1  0
 22 13  1  0
 23 14  1  0
 24 15  1  0
M  END
$$$$
