
     RDKit          3D

 17 18  0  0  0  0  0  0  0  0999 V2000
    1.7990    0.5760   23.3400 C   0  0  0  0  0  0  0  0  0  0  0  0
    2.6670   -0.8290   21.5780 C   0  0  0  0  0  0  0  0  0  0  0  0
    2.7820   -2.0710   20.9730 C   0  0  0  0  0  0  0  0  0  0  0  0
    3.2710   -2.1760   19.6790 C   0  0  0  0  0  0  0  0  0  0  0  0
    3.6590   -1.0530   18.9480 C   0  0  0  0  0  0  0  0  0  0  0  0
    3.5750    0.1750   19.5660 C   0  0  2  0  0  0  0  0  0  0  0  0
    3.0540    0.2920   20.8520 C   0  0  0  0  0  0  0  0  0  0  0  0
    3.8780    1.5120   18.9140 C   0  0  1  0  0  0  0  0  0  0  0  0
    3.1190    1.8570   17.8020 C   0  0  0  0  0  0  0  0  0  0  0  0
    3.2740    3.0980   17.2080 C   0  0  0  0  0  0  0  0  0  0  0  0
    4.1890    3.9900   17.7410 C   0  0  2  0  0  0  0  0  0  0  0  0
    4.9400    3.6670   18.8650 C   0  0  0  0  0  0  0  0  0  0  0  0
    4.7720    2.4180   19.4600 C   0  0  0  0  0  0  0  0  0  0  0  0
    4.3040    5.3620   17.1120 C   0  0  1  0  0  0  0  0  0  0  0  0
    2.1740   -0.6830   22.8770 O   0  0  0  0  0  0  0  0  0  0  0  0
    3.3260    5.7550   16.4120 O   0  0  0  0  0  0  0  0  0  0  0  0
    5.2840    6.1040   17.3910 O   0  0  0  0  0  0  0  0  0  0  0  0
  3  2  1  0
  4  3  1  0
  5  4  1  0
  6  5  1  6
  7  6  1  0
  7  2  1  0
  8  6  1  0
  8  9  1  1
 10  9  1  0
 11 10  1  1
 12 11  1  0
 13 12  1  0
 13  8  1  0
 14 11  1  0
 15  2  1  0
 15  1  1  0
 14 16  1  1
 17 14  1  0
M  END
$$$$
