
     RDKit          3D

 20 21  0  0  0  0  0  0  0  0999 V2000
    4.5400    5.2460   17.1250 C   0  0  1  0  0  0  0  0  0  0  0  0
    4.3380    3.8730   17.7650 C   0  0  0  0  0  0  0  0  0  0  0  0
    5.0980    3.5070   18.8670 C   0  0  0  0  0  0  0  0  0  0  0  0
    4.8670    2.2890   19.4800 C   0  0  0  0  0  0  0  0  0  0  0  0
    3.9030    1.4540   18.9430 C   0  0  2  0  0  0  0  0  0  0  0  0
    3.1320   -1.8460   19.8590 C   0  0  0  0  0  0  0  0  0  0  0  0
    3.0090    0.1160   20.7240 C   0  0  0  0  0  0  0  0  0  0  0  0
    3.1330    1.8180   17.8580 C   0  0  0  0  0  0  0  0  0  0  0  0
    3.3620    3.0370   17.2570 C   0  0  0  0  0  0  0  0  0  0  0  0
    3.5540    0.1950   19.5350 N   0  0  0  0  0  0  0  0  0  0  0  0
    3.6110   -1.0020   18.9820 N   0  0  0  0  0  0  0  0  0  0  0  0
    2.7450   -1.1780   20.9620 N   0  0  0  0  0  0  0  0  0  0  0  0
    3.6360    5.7070   16.3700 O   0  0  0  0  0  0  0  0  0  0  0  0
    5.5180    5.9540   17.4690 O   0  0  0  0  0  0  0  0  0  0  0  0
    5.7400    4.0880   19.2070 H   0  0  0  0  0  0  0  0  0  0  0  0
    5.3650    2.0270   20.2200 H   0  0  0  0  0  0  0  0  0  0  0  0
    3.0780   -2.7670   19.7420 H   0  0  0  0  0  0  0  0  0  0  0  0
    2.8470    0.8250   21.3040 H   0  0  0  0  0  0  0  0  0  0  0  0
    2.4750    1.2470   17.5320 H   0  0  0  0  0  0  0  0  0  0  0  0
    2.8520    3.3020   16.5260 H   0  0  0  0  0  0  0  0  0  0  0  0
  2  1  1  0
  3  2  1  0
  4  3  1  0
  5  4  1  0
  8  5  1  0
  9  8  1  0
  9  2  1  0
 10  7  1  0
  5 10  1  1
 11 10  1  0
 11  6  1  0
 12  7  1  0
 12  6  1  0
  1 13  1  1
 14  1  1  0
 15  3  1  0
 16  4  1  0
 17  6  1  0
 18  7  1  0
 19  8  1  0
 20  9  1  0
M  END
$$$$
