
     RDKit          3D

 21 22  0  0  0  0  0  0  0  0999 V2000
    4.5930    5.3300   17.1960 C   0  0  2  0  0  0  0  0  0  0  0  0
    4.4060    3.9630   17.8020 C   0  0  0  0  0  0  0  0  0  0  0  0
    5.1700    3.6140   18.9120 C   0  0  2  0  0  0  0  0  0  0  0  0
    4.9240    2.4170   19.5490 C   0  0  0  0  0  0  0  0  0  0  0  0
    3.9920    1.5390   19.0400 C   0  0  1  0  0  0  0  0  0  0  0  0
    3.5810    0.2960   19.7520 C   0  0  1  0  0  0  0  0  0  0  0  0
    3.2220    0.2730   21.1060 C   0  0  0  0  0  0  0  0  0  0  0  0
    2.7510   -1.0700   21.3220 C   0  0  0  0  0  0  0  0  0  0  0  0
    2.8590   -1.6620   20.0700 C   0  0  0  0  0  0  0  0  0  0  0  0
    3.2260    1.8560   17.9350 C   0  0  0  0  0  0  0  0  0  0  0  0
    3.4570    3.0690   17.3040 C   0  0  0  0  0  0  0  0  0  0  0  0
    5.5440    6.0630   17.5460 O   0  0  0  0  0  0  0  0  0  0  0  0
    3.6140    5.7310   16.4880 O   0  0  0  0  0  0  0  0  0  0  0  0
    3.3360   -0.8180   19.1700 O   0  0  0  0  0  0  0  0  0  0  0  0
    5.7840    4.2160   19.2670 H   0  0  0  0  0  0  0  0  0  0  0  0
    5.4020    2.1930   20.3140 H   0  0  0  0  0  0  0  0  0  0  0  0
    3.2750    0.9670   21.7230 H   0  0  0  0  0  0  0  0  0  0  0  0
    2.4810   -1.4620   22.1200 H   0  0  0  0  0  0  0  0  0  0  0  0
    2.6580   -2.5530   19.8950 H   0  0  0  0  0  0  0  0  0  0  0  0
    2.5610    1.2790   17.6340 H   0  0  0  0  0  0  0  0  0  0  0  0
    2.9370    3.3120   16.5720 H   0  0  0  0  0  0  0  0  0  0  0  0
  2  1  1  0
  3  2  1  0
  4  3  1  0
  5  4  1  1
  6  5  1  0
  7  6  1  0
  8  7  1  0
  9  8  1  0
 10  5  1  0
 11 10  1  0
 11  2  1  0
  1 12  1  1
 13  1  1  0
 14  9  1  0
  6 14  1  6
  3 15  1  1
 16  4  1  0
 17  7  1  0
 18  8  1  0
 19  9  1  0
 20 10  1  0
 21 11  1  0
M  END
$$$$
