
     RDKit          3D

 21 22  0  0  0  0  0  0  0  0999 V2000
    2.7250   -0.9710   21.4830 C   0  0  0  0  0  0  0  0  0  0  0  0
    2.7770   -1.9610   20.4880 C   0  0  0  0  0  0  0  0  0  0  0  0
    4.6350    5.3080   17.1930 C   0  0  1  0  0  0  0  0  0  0  0  0
    4.4550    3.9540   17.8230 C   0  0  2  0  0  0  0  0  0  0  0  0
    3.4770    3.1060   17.3350 C   0  0  0  0  0  0  0  0  0  0  0  0
    3.2580    1.9110   17.9740 C   0  0  0  0  0  0  0  0  0  0  0  0
    4.0460    1.5770   19.0540 C   0  0  2  0  0  0  0  0  0  0  0  0
    3.6360    0.3150   19.7350 C   0  0  1  0  0  0  0  0  0  0  0  0
    3.1780    0.3180   21.0610 C   0  0  0  0  0  0  0  0  0  0  0  0
    4.9920    2.4290   19.5800 C   0  0  0  0  0  0  0  0  0  0  0  0
    5.2140    3.6260   18.9400 C   0  0  0  0  0  0  0  0  0  0  0  0
    3.7120    5.7550   16.4630 O   0  0  0  0  0  0  0  0  0  0  0  0
    5.5810    6.0300   17.5540 O   0  0  0  0  0  0  0  0  0  0  0  0
    3.3730   -1.2040   19.1010 S   0  0  0  0  0  0  0  0  0  0  0  0
    2.4380   -1.1440   22.3510 H   0  0  0  0  0  0  0  0  0  0  0  0
    2.5380   -2.8550   20.5770 H   0  0  0  0  0  0  0  0  0  0  0  0
    2.9590    3.3530   16.6020 H   0  0  0  0  0  0  0  0  0  0  0  0
    2.5980    1.3290   17.6740 H   0  0  0  0  0  0  0  0  0  0  0  0
    3.2020    1.0640   21.6150 H   0  0  0  0  0  0  0  0  0  0  0  0
    5.4840    2.1910   20.3320 H   0  0  0  0  0  0  0  0  0  0  0  0
    5.8520    4.2190   19.2640 H   0  0  0  0  0  0  0  0  0  0  0  0
  2  1  1  0
  4  3  1  0
  4  5  1  1
  6  5  1  0
  7  6  1  1
  8  7  1  0
  9  8  1  0
  9  1  1  0
 10  7  1  0
 11 10  1  0
 11  4  1  0
  3 12  1  1
 13  3  1  0
  8 14  1  6
 14  2  1  0
 15  1  1  0
 16  2  1  0
 17  5  1  0
 18  6  1  0
 19  9  1  0
 20 10  1  0
 21 11  1  0
M  END
$$$$
