
     RDKit          3D

 20 20  0  0  0  0  0  0  0  0999 V2000
    4.6340    5.2900   17.0790 C   0  0  0  0  0  0  0  0  0  0  0  0
    3.4070    1.8100   17.9870 C   0  0  0  0  0  0  0  0  0  0  0  0
    3.5240    3.0400   17.3600 C   0  0  0  0  0  0  0  0  0  0  0  0
    4.5040    3.9320   17.7630 C   0  0  0  0  0  0  0  0  0  0  0  0
    5.3680    3.5930   18.7920 C   0  0  0  0  0  0  0  0  0  0  0  0
    5.2510    2.3630   19.4160 C   0  0  0  0  0  0  0  0  0  0  0  0
    4.2740    1.4700   19.0120 C   0  0  0  0  0  0  0  0  0  0  0  0
    4.1740    0.1230   19.7340 C   0  0  1  0  0  0  0  0  0  0  0  0
    3.5320   -1.0220   18.9480 C   0  0  1  0  0  0  0  0  0  0  0  0
    5.6450    6.0080   17.3020 O   0  0  0  0  0  0  0  0  0  0  0  0
    3.7300    5.6900   16.3000 O   0  0  0  0  0  0  0  0  0  0  0  0
    4.7050   -1.7960   17.8510 Cl  0  0  0  0  0  0  0  0  0  0  0  0
    2.7490    1.2110   17.7160 H   0  0  0  0  0  0  0  0  0  0  0  0
    2.9430    3.2670   16.6700 H   0  0  0  0  0  0  0  0  0  0  0  0
    6.0260    4.1920   19.0630 H   0  0  0  0  0  0  0  0  0  0  0  0
    5.8310    2.1360   20.1070 H   0  0  0  0  0  0  0  0  0  0  0  0
    5.0710   -0.1510   19.9840 H   0  0  0  0  0  0  0  0  0  0  0  0
    3.6610    0.2540   20.5470 H   0  0  0  0  0  0  0  0  0  0  0  0
    3.1960   -1.6850   19.5710 H   0  0  0  0  0  0  0  0  0  0  0  0
    2.7930   -0.6730   18.4270 H   0  0  0  0  0  0  0  0  0  0  0  0
  3  2  1  0
  4  3  1  0
  4  1  1  0
  5  4  1  0
  6  5  1  0
  7  6  1  0
  7  2  1  0
  8  7  1  0
  9  8  1  0
 10  1  1  0
 11  1  1  0
 12  9  1  0
 13  2  1  0
 14  3  1  0
 15  5  1  0
 16  6  1  0
  8 17  1  1
 18  8  1  0
  9 19  1  1
 20  9  1  0
M  END
$$$$
