
     RDKit          3D

 26 27  0  0  0  0  0  0  0  0999 V2000
    2.3480   -0.2580   23.7830 C   0  0  0  0  0  0  0  0  0  0  0  0
    2.5260   -1.4260   23.0530 C   0  0  0  0  0  0  0  0  0  0  0  0
    2.9130   -1.3820   21.7160 C   0  0  0  0  0  0  0  0  0  0  0  0
    3.1330   -0.1750   21.0630 C   0  0  0  0  0  0  0  0  0  0  0  0
    2.9260    0.9850   21.8250 C   0  0  0  0  0  0  0  0  0  0  0  0
    2.5430    0.9460   23.1540 C   0  0  0  0  0  0  0  0  0  0  0  0
    3.5520   -0.0710   19.6120 C   0  0  2  0  0  0  0  0  0  0  0  0
    3.8140    1.2200   18.9720 C   0  0  2  0  0  0  0  0  0  0  0  0
    4.7560    2.1160   19.4870 C   0  0  0  0  0  0  0  0  0  0  0  0
    4.9610    3.3530   18.9290 C   0  0  0  0  0  0  0  0  0  0  0  0
    4.2030    3.7690   17.8440 C   0  0  0  0  0  0  0  0  0  0  0  0
    3.2580    2.8950   17.3380 C   0  0  0  0  0  0  0  0  0  0  0  0
    3.0640    1.6570   17.8950 C   0  0  0  0  0  0  0  0  0  0  0  0
    4.3600    5.1470   17.2450 C   0  0  1  0  0  0  0  0  0  0  0  0
    3.5820   -1.1120   18.9880 O   0  0  0  0  0  0  0  0  0  0  0  0
    3.4090    5.5070   16.5370 O   0  0  0  0  0  0  0  0  0  0  0  0
    5.3480    5.8300   17.5840 O   0  0  0  0  0  0  0  0  0  0  0  0
    2.0820   -0.2900   24.6740 H   0  0  0  0  0  0  0  0  0  0  0  0
    2.3890   -2.2380   23.4860 H   0  0  0  0  0  0  0  0  0  0  0  0
    3.0290   -2.1920   21.2730 H   0  0  0  0  0  0  0  0  0  0  0  0
    3.0570    1.8230   21.4430 H   0  0  0  0  0  0  0  0  0  0  0  0
    2.4200    1.7310   23.6390 H   0  0  0  0  0  0  0  0  0  0  0  0
    5.2750    1.8800   20.2210 H   0  0  0  0  0  0  0  0  0  0  0  0
    5.5880    3.9400   19.2840 H   0  0  0  0  0  0  0  0  0  0  0  0
    2.7400    3.1710   16.6160 H   0  0  0  0  0  0  0  0  0  0  0  0
    2.4100    1.0980   17.5420 H   0  0  0  0  0  0  0  0  0  0  0  0
  2  1  1  0
  3  2  1  0
  4  3  1  0
  5  4  1  0
  6  5  1  0
  6  1  1  0
  7  4  1  0
  8  7  1  0
  8  9  1  1
 10  9  1  0
 11 10  1  0
 12 11  1  0
 13 12  1  0
 13  8  1  0
 14 11  1  0
  7 15  1  6
 14 16  1  1
 17 14  1  0
 18  1  1  0
 19  2  1  0
 20  3  1  0
 21  5  1  0
 22  6  1  0
 23  9  1  0
 24 10  1  0
 25 12  1  0
 26 13  1  0
M  END
$$$$
