
     RDKit          3D

 15 15  0  0  0  0  0  0  0  0999 V2000
    3.0680   -0.7020   20.0130 C   0  0  0  0  0  0  0  0  0  0  0  0
    5.5490   -0.7850   20.0310 C   0  0  0  0  0  0  0  0  0  0  0  0
    3.5520    2.6640   17.1690 C   0  0  0  0  0  0  0  0  0  0  0  0
    4.5200    4.9790   17.1670 C   0  0  0  0  0  0  0  0  0  0  0  0
    4.4650    3.5500   17.7030 C   0  0  0  0  0  0  0  0  0  0  0  0
    5.3390    3.1610   18.7080 C   0  0  0  0  0  0  0  0  0  0  0  0
    5.3000    1.8540   19.1860 C   0  0  0  0  0  0  0  0  0  0  0  0
    4.3820    0.9630   18.6620 C   0  0  0  0  0  0  0  0  0  0  0  0
    4.3170   -0.4920   19.1790 C   0  0  2  0  0  0  0  0  0  0  0  0
    2.8150    0.1420   21.2750 C   0  0  0  0  0  0  0  0  0  0  0  0
    3.5140    1.3710   17.6580 C   0  0  0  0  0  0  0  0  0  0  0  0
    5.5140    5.6700   17.4810 O   0  0  0  0  0  0  0  0  0  0  0  0
    3.5980    5.4210   16.4290 O   0  0  0  0  0  0  0  0  0  0  0  0
    4.2730   -1.3810   18.0900 O   0  0  0  0  0  0  0  0  0  0  0  0
    2.2970   -1.5360   19.6630 O   0  0  0  0  0  0  0  0  0  0  0  0
  5  4  1  0
  5  3  1  0
  6  5  1  0
  7  6  1  0
  8  7  1  0
  9  8  1  0
  9  1  1  0
  9  2  1  1
 10  1  1  0
 11  8  1  0
 11  3  1  0
 12  4  1  0
 13  4  1  0
 14  9  1  0
 15  1  1  0
M  END
$$$$
