
     RDKit          3D

 11 11  0  0  0  0  0  0  0  0999 V2000
    3.9130    1.2770   18.9000 C   0  0  1  0  0  0  0  0  0  0  0  0
    4.1580    3.7360   17.7930 C   0  0  0  0  0  0  0  0  0  0  0  0
    4.8700    2.1270   19.3720 C   0  0  0  0  0  0  0  0  0  0  0  0
    3.0500    1.5940   17.8260 C   0  0  0  0  0  0  0  0  0  0  0  0
    5.0160    3.3720   18.8190 C   0  0  0  0  0  0  0  0  0  0  0  0
    3.1960    2.8650   17.2630 C   0  0  0  0  0  0  0  0  0  0  0  0
    3.9580   -0.0650   19.6460 C   0  0  0  0  0  0  0  0  0  0  0  0
    4.2820    5.1270   17.2520 C   0  0  0  0  0  0  0  0  0  0  0  0
    3.2690   -1.0200   18.9710 O   0  0  0  0  0  0  0  0  0  0  0  0
    5.2780    5.8680   17.4900 O   0  0  0  0  0  0  0  0  0  0  0  0
    3.3550    5.5830   16.5280 O   0  0  0  0  0  0  0  0  0  0  0  0
  3  1  1  0
  4  1  1  0
  5  3  1  0
  5  2  1  0
  6  4  1  0
  6  2  1  0
  1  7  1  6
  8  2  1  0
  9  7  1  0
 10  8  1  0
 11  8  1  0
M  END
$$$$
