
     RDKit          3D

 11 11  0  0  0  0  0  0  0  0999 V2000
   43.4530   80.8390   37.0200 C   0  0  0  0  0  0  0  0  0  0  0  0
   42.9310   80.7080   38.3330 C   0  0  0  0  0  0  0  0  0  0  0  0
   42.7330   79.3820   38.8040 C   0  0  0  0  0  0  0  0  0  0  0  0
   43.0350   78.2900   38.0020 C   0  0  0  0  0  0  0  0  0  0  0  0
   43.5500   78.4320   36.7090 C   0  0  0  0  0  0  0  0  0  0  0  0
   43.7050   83.1900   36.8860 O   0  0  0  0  0  0  0  0  0  0  0  0
   43.7460   79.7240   36.2380 C   0  0  0  0  0  0  0  0  0  0  0  0
   43.7500   82.1580   36.3120 C   0  0  0  0  0  0  0  0  0  0  0  0
   41.6970   80.0620   40.9480 C   0  0  0  0  0  0  0  0  0  0  0  0
   42.2510   79.0080   40.1150 O   0  0  0  0  0  0  0  0  0  0  0  0
   42.8220   76.9830   38.4930 O   0  0  0  0  0  0  0  0  0  0  0  0
  2  1  1  0
  3  2  1  0
  4  3  1  0
  5  4  1  0
  7  5  1  0
  7  1  1  0
  8  1  1  0
  8  6  1  0
 10  9  1  0
 10  3  1  0
 11  4  1  0
M  END
$$$$
