
     RDKit          3D

 22 24  0  0  0  0  0  0  0  0999 V2000
  -48.9870   10.5010   -0.4780 O   0  0  0  0  0  0  0  0  0  0  0  0
  -48.4300    9.1710   -0.2970 C   0  0  2  0  0  0  0  0  0  0  0  0
  -47.3090    9.1940   -1.3300 C   0  0  0  0  0  0  0  0  0  0  0  0
  -49.4590    7.9540   -0.4790 C   0  0  0  0  0  0  0  0  0  0  0  0
  -48.0620    8.9190    1.1250 C   0  0  2  0  0  0  0  0  0  0  0  0
  -46.3970   10.2170   -0.9060 N   0  0  0  0  0  0  0  0  0  0  0  0
  -46.5630   11.3120   -0.1500 C   0  0  0  0  0  0  0  0  0  0  0  0
  -45.0680    9.9510   -1.3740 N   0  0  0  0  0  0  0  0  0  0  0  0
  -45.3140   11.8170   -0.1340 N   0  0  0  0  0  0  0  0  0  0  0  0
  -44.4060   11.0280   -0.8540 C   0  0  0  0  0  0  0  0  0  0  0  0
  -49.7770    7.9620   -1.9120 N   0  0  0  0  0  0  0  0  0  0  0  0
  -50.6280    8.7460   -2.6760 C   0  0  0  0  0  0  0  0  0  0  0  0
  -48.9670    7.0520   -2.6840 N   0  0  0  0  0  0  0  0  0  0  0  0
  -50.4190    8.2960   -3.9670 N   0  0  0  0  0  0  0  0  0  0  0  0
  -49.4210    7.2990   -3.9660 C   0  0  0  0  0  0  0  0  0  0  0  0
  -47.1260    8.0320    1.5670 C   0  0  0  0  0  0  0  0  0  0  0  0
  -49.0140    9.5820    2.0370 C   0  0  0  0  0  0  0  0  0  0  0  0
  -47.0990    7.9580    2.9990 C   0  0  0  0  0  0  0  0  0  0  0  0
  -47.9930    8.6270    3.8710 C   0  0  0  0  0  0  0  0  0  0  0  0
  -47.8990    8.4930    5.2140 F   0  0  0  0  0  0  0  0  0  0  0  0
  -48.9830    9.4510    3.4270 C   0  0  0  0  0  0  0  0  0  0  0  0
  -49.9340   10.3710    1.3690 F   0  0  0  0  0  0  0  0  0  0  0  0
  2  1  1  1
  3  2  1  0
  4  2  1  0
  5  2  1  0
  6  3  1  0
  7  6  1  0
  8  6  1  0
  9  7  1  0
 10  8  1  0
 10  9  1  0
 11  4  1  0
 12 11  1  0
 13 11  1  0
 14 12  1  0
 15 14  1  0
 15 13  1  0
  5 16  1  1
 17  5  1  0
 18 16  1  0
 19 18  1  0
 20 19  1  0
 21 19  1  0
 21 17  1  0
 22 17  1  0
M  END
$$$$
