
     RDKit          3D

 36 40  0  0  0  0  0  0  0  0999 V2000
  -17.1690   -4.4550   17.8590 C   0  0  0  0  0  0  0  0  0  0  0  0
  -21.5520   -4.8090   18.3480 C   0  0  0  0  0  0  0  0  0  0  0  0
  -21.4170   -5.8370   11.7170 C   0  0  0  0  0  0  0  0  0  0  0  0
  -21.3340   -3.2250   11.1510 O   0  0  0  0  0  0  0  0  0  0  0  0
  -21.2160   -2.2370   16.5890 F   0  0  0  0  0  0  0  0  0  0  0  0
  -17.5690   -1.3280   13.7970 F   0  0  0  0  0  0  0  0  0  0  0  0
  -14.2380   -9.9590   17.5510 Cl  0  0  0  0  0  0  0  0  0  0  0  0
  -18.5050    0.2120   16.8430 C   0  0  0  0  0  0  0  0  0  0  0  0
  -19.6490   -0.5140   17.1410 C   0  0  0  0  0  0  0  0  0  0  0  0
  -17.7930   -0.0750   15.6870 C   0  0  0  0  0  0  0  0  0  0  0  0
  -16.0290   -8.3080   18.6940 C   0  0  0  0  0  0  0  0  0  0  0  0
  -16.1960   -8.5290   16.2970 C   0  0  0  0  0  0  0  0  0  0  0  0
  -17.1020   -7.4410   18.6720 C   0  0  0  0  0  0  0  0  0  0  0  0
  -17.2700   -7.6490   16.2730 C   0  0  0  0  0  0  0  0  0  0  0  0
  -19.8480   -6.8760   15.4690 C   0  0  0  0  0  0  0  0  0  0  0  0
  -19.9990   -8.0890   18.7890 C   0  0  0  0  0  0  0  0  0  0  0  0
  -20.3540   -6.4900   14.2360 C   0  0  0  0  0  0  0  0  0  0  0  0
  -21.8480   -7.0670   19.3370 C   0  0  0  0  0  0  0  0  0  0  0  0
  -20.3680   -2.5040   13.0590 C   0  0  0  0  0  0  0  0  0  0  0  0
  -19.3150   -4.5610   15.9070 C   0  0  0  0  0  0  0  0  0  0  0  0
  -21.1700   -8.2170   19.4310 N   0  0  0  0  0  0  0  0  0  0  0  0
  -18.4310   -5.0190   18.2310 O   0  0  0  0  0  0  0  0  0  0  0  0
  -15.5800   -8.8560   17.5060 C   0  0  0  0  0  0  0  0  0  0  0  0
  -20.0750   -1.5200   16.2810 C   0  0  0  0  0  0  0  0  0  0  0  0
  -18.2210   -1.0820   14.8310 C   0  0  0  0  0  0  0  0  0  0  0  0
  -17.7280   -7.1010   17.4750 C   0  0  0  0  0  0  0  0  0  0  0  0
  -19.3000   -5.9010   16.2860 C   0  0  1  0  0  0  0  0  0  0  0  0
  -19.8280   -2.8310   14.2890 C   0  0  1  0  0  0  0  0  0  0  0  0
  -19.3580   -1.8200   15.1250 C   0  0  0  0  0  0  0  0  0  0  0  0
  -19.9750   -6.8480   18.3160 C   0  0  0  0  0  0  0  0  0  0  0  0
  -20.8690   -3.5150   12.2470 C   0  0  0  0  0  0  0  0  0  0  0  0
  -19.8350   -4.1760   14.6820 C   0  0  0  0  0  0  0  0  0  0  0  0
  -20.3530   -5.1530   13.8360 C   0  0  0  0  0  0  0  0  0  0  0  0
  -21.1060   -6.2090   18.6460 N   0  0  0  0  0  0  0  0  0  0  0  0
  -20.8600   -4.8040   12.6360 N   0  0  0  0  0  0  0  0  0  0  0  0
  -18.8120   -6.2250   17.5300 C   0  0  2  0  0  0  0  0  0  0  0  0
  9  8  1  0
 10  8  1  0
 13 11  1  0
 14 12  1  0
 17 15  1  0
 21 18  1  0
 21 16  1  0
 22  1  1  0
 23 12  1  0
 23 11  1  0
 23  7  1  0
 24  9  1  0
 24  5  1  0
 25 10  1  0
 25  6  1  0
 26 14  1  0
 26 13  1  0
 27 15  1  1
 27 20  1  0
 28 19  1  0
 28 29  1  1
 29 25  1  0
 29 24  1  0
 30 16  1  0
 31 19  1  0
 31  4  1  0
 32 28  1  0
 32 20  1  0
 33 17  1  0
 33 32  1  0
 34 18  1  0
 34 30  1  0
 34  2  1  0
 35  3  1  0
 35 33  1  0
 35 31  1  0
 36 27  1  0
 36 30  1  0
 36 26  1  0
 36 22  1  1
M  END
$$$$
