
     RDKit          3D

 35 39  0  0  0  0  0  0  0  0999 V2000
  -14.1220    5.7880   -2.0530 C   0  0  0  0  0  0  0  0  0  0  0  0
  -15.4700    5.7310   -1.7560 C   0  0  0  0  0  0  0  0  0  0  0  0
  -16.3750    6.5770   -2.3640 C   0  0  0  0  0  0  0  0  0  0  0  0
  -15.9130    7.5050   -3.2960 C   0  0  0  0  0  0  0  0  0  0  0  0
  -14.5490    7.5710   -3.5920 C   0  0  0  0  0  0  0  0  0  0  0  0
  -13.6400    6.6970   -2.9970 C   0  0  1  0  0  0  0  0  0  0  0  0
  -12.2550    6.7890   -3.2670 C   0  0  2  0  0  0  0  0  0  0  0  0
  -11.8540    8.2610   -3.2700 C   0  0  0  0  0  0  0  0  0  0  0  0
  -11.7530    8.9310   -1.9830 N   0  0  0  0  0  0  0  0  0  0  0  0
  -10.9220    8.7880   -1.2480 N   0  0  0  0  0  0  0  0  0  0  0  0
  -11.0730    9.5850   -0.1960 C   0  0  0  0  0  0  0  0  0  0  0  0
  -12.1800   10.2620   -0.3970 N   0  0  0  0  0  0  0  0  0  0  0  0
  -12.6060    9.8550   -1.5650 C   0  0  0  0  0  0  0  0  0  0  0  0
  -11.8400    6.3560   -4.6170 N   0  0  0  0  0  0  0  0  0  0  0  0
  -10.6200    5.8310   -4.8530 C   0  0  2  0  0  0  0  0  0  0  0  0
   -9.8180    5.5740   -3.9660 O   0  0  0  0  0  0  0  0  0  0  0  0
  -10.2340    5.7610   -6.1930 C   0  0  2  0  0  0  0  0  0  0  0  0
   -8.8910    5.9310   -6.4990 C   0  0  0  0  0  0  0  0  0  0  0  0
   -8.4440    5.9190   -7.8130 C   0  0  0  0  0  0  0  0  0  0  0  0
  -11.1440    5.6280   -7.2270 C   0  0  0  0  0  0  0  0  0  0  0  0
  -10.6930    5.6150   -8.5480 C   0  0  0  0  0  0  0  0  0  0  0  0
   -9.3430    5.7400   -8.8480 C   0  0  1  0  0  0  0  0  0  0  0  0
   -8.9410    5.7750  -10.1180 C   0  0  2  0  0  0  0  0  0  0  0  0
   -7.9340    6.3900  -10.5110 O   0  0  0  0  0  0  0  0  0  0  0  0
   -9.6080    5.3040  -11.1580 N   0  0  0  0  0  0  0  0  0  0  0  0
   -8.9990    5.5730  -12.1200 N   0  0  0  0  0  0  0  0  0  0  0  0
   -7.9280    6.2560  -11.7380 C   0  0  0  0  0  0  0  0  0  0  0  0
   -6.9910    6.7640  -12.5410 C   0  0  0  0  0  0  0  0  0  0  0  0
   -5.8240    7.2950  -12.0010 C   0  0  0  0  0  0  0  0  0  0  0  0
   -4.8470    7.8460  -12.8220 C   0  0  0  0  0  0  0  0  0  0  0  0
   -5.0320    7.8810  -14.1980 C   0  0  0  0  0  0  0  0  0  0  0  0
   -6.1980    7.3600  -14.7450 C   0  0  0  0  0  0  0  0  0  0  0  0
   -7.1730    6.8100  -13.9200 C   0  0  0  0  0  0  0  0  0  0  0  0
  -13.1160    4.7360   -1.2730 Cl  0  0  0  0  0  0  0  0  0  0  0  0
  -18.0550    6.4410   -1.9500 Cl  0  0  0  0  0  0  0  0  0  0  0  0
  2  1  1  0
  3  2  1  0
  4  3  1  0
  5  4  1  0
  6  5  1  1
  6  1  1  0
  7  6  1  0
  7  8  1  6
  9  8  1  0
 10  9  1  0
 11 10  1  0
 12 11  1  0
 13 12  1  0
 13  9  1  0
 14  7  1  0
 15 14  1  0
 15 16  1  1
 17 15  1  0
 17 18  1  6
 19 18  1  0
 20 17  1  0
 21 20  1  0
 22 21  1  6
 22 19  1  0
 23 22  1  0
 24 23  1  0
 23 25  1  6
 26 25  1  0
 27 26  1  0
 27 24  1  0
 28 27  1  0
 29 28  1  0
 30 29  1  0
 31 30  1  0
 32 31  1  0
 33 32  1  0
 33 28  1  0
 34  1  1  0
 35  3  1  0
M  END
$$$$
