
     RDKit          3D

 19 20  0  0  0  0  0  0  0  0999 V2000
    2.5410    0.6820  -21.4840 C   0  0  0  0  0  0  0  0  0  0  0  0
    3.1030    0.9380  -22.6910 N   0  0  0  0  0  0  0  0  0  0  0  0
    3.5920    2.2140  -22.6390 C   0  0  2  0  0  0  0  0  0  0  0  0
    2.5620    1.7410  -20.6950 N   0  0  0  0  0  0  0  0  0  0  0  0
    3.2200    2.7290  -21.4300 C   0  0  1  0  0  0  0  0  0  0  0  0
    3.4780    4.0370  -20.8460 C   0  0  2  0  0  0  0  0  0  0  0  0
    4.5870    4.7760  -21.2500 C   0  0  0  0  0  0  0  0  0  0  0  0
    2.6750    4.5300  -19.8350 C   0  0  1  0  0  0  0  0  0  0  0  0
    2.9290    5.7780  -19.3040 C   0  0  0  0  0  0  0  0  0  0  0  0
    4.0330    6.4990  -19.6930 C   0  0  1  0  0  0  0  0  0  0  0  0
    4.8430    6.0190  -20.6940 C   0  0  0  0  0  0  0  0  0  0  0  0
    2.1200   -0.1550  -21.2540 H   0  0  0  0  0  0  0  0  0  0  0  0
    3.2210    0.3460  -23.3840 H   0  0  0  0  0  0  0  0  0  0  0  0
    4.0350    2.6590  -23.3390 H   0  0  0  0  0  0  0  0  0  0  0  0
    5.1510    4.4400  -21.9230 H   0  0  0  0  0  0  0  0  0  0  0  0
    1.9200    4.0450  -19.5570 H   0  0  0  0  0  0  0  0  0  0  0  0
    2.3700    6.1130  -18.6270 H   0  0  0  0  0  0  0  0  0  0  0  0
    4.1980    7.3510  -19.3200 H   0  0  0  0  0  0  0  0  0  0  0  0
    5.5930    6.5150  -20.9750 H   0  0  0  0  0  0  0  0  0  0  0  0
  2  1  1  0
  3  2  1  0
  4  1  1  0
  5  3  1  0
  5  4  1  1
  6  5  1  0
  6  7  1  1
  8  6  1  0
  9  8  1  0
 10  9  1  0
 11  7  1  0
 11 10  1  0
 12  1  1  0
 13  2  1  0
  3 14  1  6
 15  7  1  0
  8 16  1  6
 17  9  1  0
 10 18  1  6
 19 11  1  0
M  END
$$$$
