
     RDKit          3D

 27 27  0  0  0  0  0  0  0  0999 V2000
  -72.2330  -32.8060   20.6900 C   0  0  0  0  0  0  0  0  0  0  0  0
  -72.8080  -33.0490   19.3120 C   0  0  1  0  0  0  0  0  0  0  0  0
  -71.6800  -33.0530   18.2740 C   0  0  2  0  0  0  0  0  0  0  0  0
  -71.7960  -32.0560   17.1100 C   0  0  1  0  0  0  0  0  0  0  0  0
  -70.5270  -32.0310   16.2430 C   0  0  2  0  0  0  0  0  0  0  0  0
  -69.3320  -31.2830   16.8510 C   0  0  2  0  0  0  0  0  0  0  0  0
  -69.5380  -29.7650   16.9450 C   0  0  0  0  0  0  0  0  0  0  0  0
  -68.4360  -29.0080   17.6910 C   0  0  2  0  0  0  0  0  0  0  0  0
  -68.3500  -29.4120   19.1540 C   0  0  0  0  0  0  0  0  0  0  0  0
  -69.3800  -28.8870   20.1330 C   0  0  1  0  0  0  0  0  0  0  0  0
  -70.0900  -30.0630   20.8120 C   0  0  2  0  0  0  0  0  0  0  0  0
  -71.2840  -29.7450   21.7230 C   0  0  2  0  0  0  0  0  0  0  0  0
  -71.8890  -31.0350   22.2770 C   0  0  1  0  0  0  0  0  0  0  0  0
  -72.8330  -30.7980   23.4400 C   0  0  0  0  0  0  0  0  0  0  0  0
  -73.2270  -32.0530   24.1700 C   0  0  0  0  0  0  0  0  0  0  0  0
  -72.6520  -31.6390   21.1990 O   0  0  0  0  0  0  0  0  0  0  0  0
  -71.4920  -33.5610   21.2530 O   0  0  0  0  0  0  0  0  0  0  0  0
  -73.6070  -34.3530   19.2970 C   0  0  0  0  0  0  0  0  0  0  0  0
  -71.5400  -34.3740   17.7690 O   0  0  0  0  0  0  0  0  0  0  0  0
  -73.0330  -32.3370   16.2490 C   0  0  0  0  0  0  0  0  0  0  0  0
  -70.8260  -31.5170   14.9600 O   0  0  0  0  0  0  0  0  0  0  0  0
  -68.0270  -31.6160   16.1510 C   0  0  0  0  0  0  0  0  0  0  0  0
  -68.6060  -27.5090   17.5630 C   0  0  0  0  0  0  0  0  0  0  0  0
  -67.4840  -30.1510   19.5380 O   0  0  0  0  0  0  0  0  0  0  0  0
  -68.7020  -27.9870   21.1490 C   0  0  0  0  0  0  0  0  0  0  0  0
  -69.1570  -30.8450   21.5360 O   0  0  0  0  0  0  0  0  0  0  0  0
  -72.3380  -28.9060   20.9920 C   0  0  0  0  0  0  0  0  0  0  0  0
  2  1  1  0
  3  2  1  0
  4  3  1  0
  5  4  1  0
  6  5  1  0
  7  6  1  0
  8  7  1  0
  9  8  1  0
 10  9  1  0
 11 10  1  0
 12 11  1  0
 13 12  1  0
 13 14  1  1
 15 14  1  0
 16  1  1  0
 16 13  1  0
 17  1  1  0
  2 18  1  1
  3 19  1  6
  4 20  1  6
  5 21  1  6
  6 22  1  6
  8 23  1  1
 24  9  1  0
 10 25  1  1
 11 26  1  1
 12 27  1  6
M  END
$$$$
