
     RDKit          3D

 21 24  0  0  0  0  0  0  0  0999 V2000
   72.2050  -83.7860  -20.6710 C   0  0  0  0  0  0  0  0  0  0  0  0
   72.0200  -84.5670  -21.9690 C   0  0  0  0  0  0  0  0  0  0  0  0
   70.9050  -84.0370  -22.8060 C   0  0  0  0  0  0  0  0  0  0  0  0
   70.8110  -84.3000  -23.9970 O   0  0  0  0  0  0  0  0  0  0  0  0
   69.9240  -83.2160  -22.1260 C   0  0  0  0  0  0  0  0  0  0  0  0
   69.7750  -83.2380  -20.7990 C   0  0  1  0  0  0  0  0  0  0  0  0
   68.4400  -83.0770  -20.1510 C   0  0  0  0  0  0  0  0  0  0  0  0
   68.0620  -84.3320  -19.3760 C   0  0  0  0  0  0  0  0  0  0  0  0
   69.1570  -84.7750  -18.4150 C   0  0  2  0  0  0  0  0  0  0  0  0
   70.5280  -84.8740  -19.1110 C   0  0  1  0  0  0  0  0  0  0  0  0
   70.9190  -83.5630  -19.8590 C   0  0  1  0  0  0  0  0  0  0  0  0
   71.6070  -85.3800  -18.1430 C   0  0  0  0  0  0  0  0  0  0  0  0
   71.2360  -86.7070  -17.4760 C   0  0  0  0  0  0  0  0  0  0  0  0
   69.8690  -86.6440  -16.8070 C   0  0  1  0  0  0  0  0  0  0  0  0
   68.8410  -86.1350  -17.8280 C   0  0  1  0  0  0  0  0  0  0  0  0
   67.4980  -86.3570  -17.1280 C   0  0  0  0  0  0  0  0  0  0  0  0
   67.7230  -87.6770  -16.3530 C   0  0  0  0  0  0  0  0  0  0  0  0
   69.2180  -88.0030  -16.5030 C   0  0  2  0  0  0  0  0  0  0  0  0
   69.7320  -88.7010  -15.3740 O   0  0  0  0  0  0  0  0  0  0  0  0
   69.9220  -85.8050  -15.5270 C   0  0  0  0  0  0  0  0  0  0  0  0
   71.1120  -82.3780  -18.8870 C   0  0  0  0  0  0  0  0  0  0  0  0
  2  1  1  0
  3  2  1  0
  4  3  1  0
  5  3  1  0
  6  5  1  6
  7  6  1  0
  8  7  1  0
  9  8  1  6
 10  9  1  0
 11 10  1  0
 11  6  1  0
 11  1  1  0
 10 12  1  1
 13 12  1  0
 14 13  1  0
 15 14  1  0
 15  9  1  0
 15 16  1  1
 17 16  1  0
 18 17  1  0
 18 14  1  0
 18 19  1  1
 14 20  1  1
 11 21  1  1
M  END
$$$$
