
     RDKit          3D

 50 53  0  0  0  0  0  0  0  0999 V2000
  -23.9100   32.1220   16.5330 C   0  0  1  0  0  0  0  0  0  0  0  0
  -23.6040   30.7540   17.1330 C   0  0  1  0  0  0  0  0  0  0  0  0
  -22.8280   29.8600   16.1620 C   0  0  1  0  0  0  0  0  0  0  0  0
  -22.6510   28.4530   16.7310 C   0  0  2  0  0  0  0  0  0  0  0  0
  -22.0200   28.2390   18.1170 C   0  0  2  0  0  0  0  0  0  0  0  0
  -21.6100   26.7590   18.1230 C   0  0  1  0  0  0  0  0  0  0  0  0
  -21.7880   26.2500   16.6900 C   0  0  1  0  0  0  0  0  0  0  0  0
  -21.8500   27.5110   15.8200 C   0  0  2  0  0  0  0  0  0  0  0  0
  -20.4200   27.9880   15.5770 C   0  0  2  0  0  0  0  0  0  0  0  0
  -22.5890   27.3960   14.4780 C   0  0  1  0  0  0  0  0  0  0  0  0
  -24.6570   32.0020   15.2050 C   0  0  2  0  0  0  0  0  0  0  0  0
  -26.8330   33.8310   13.2020 O   0  0  0  0  0  0  0  0  0  0  0  0
  -22.8940   28.7560   13.8470 C   0  0  2  0  0  0  0  0  0  0  0  0
  -23.5640   29.7540   14.8120 C   0  0  2  0  0  0  0  0  0  0  0  0
  -23.8620   31.1640   14.1730 C   0  0  2  0  0  0  0  0  0  0  0  0
  -22.5580   31.8600   13.7560 C   0  0  2  0  0  0  0  0  0  0  0  0
  -24.7250   31.0570   12.9070 C   0  0  1  0  0  0  0  0  0  0  0  0
  -25.1430   32.4180   12.3180 C   0  0  2  0  0  0  0  0  0  0  0  0
  -25.7720   33.2760   13.3720 C   0  0  0  0  0  0  0  0  0  0  0  0
  -25.0320   33.3620   14.6770 C   0  0  1  0  0  0  0  0  0  0  0  0
  -24.4860   32.7150   17.2420 H   0  0  0  0  0  0  0  0  0  0  0  0
  -22.9850   32.6820   16.4010 H   0  0  0  0  0  0  0  0  0  0  0  0
  -23.0480   30.8820   18.0600 H   0  0  0  0  0  0  0  0  0  0  0  0
  -24.5350   30.2740   17.4310 H   0  0  0  0  0  0  0  0  0  0  0  0
  -21.8470   30.3010   15.9880 H   0  0  0  0  0  0  0  0  0  0  0  0
  -23.6670   28.0720   16.8160 H   0  0  0  0  0  0  0  0  0  0  0  0
  -22.7150   28.4780   18.9210 H   0  0  0  0  0  0  0  0  0  0  0  0
  -21.1740   28.9030   18.2850 H   0  0  0  0  0  0  0  0  0  0  0  0
  -20.5850   26.6260   18.4660 H   0  0  0  0  0  0  0  0  0  0  0  0
  -22.2060   26.1780   18.8260 H   0  0  0  0  0  0  0  0  0  0  0  0
  -20.9720   25.5940   16.3890 H   0  0  0  0  0  0  0  0  0  0  0  0
  -22.6870   25.6440   16.5840 H   0  0  0  0  0  0  0  0  0  0  0  0
  -19.8680   27.2810   14.9600 H   0  0  0  0  0  0  0  0  0  0  0  0
  -19.8780   28.1010   16.5150 H   0  0  0  0  0  0  0  0  0  0  0  0
  -20.4070   28.9510   15.0690 H   0  0  0  0  0  0  0  0  0  0  0  0
  -22.0060   26.7900   13.7860 H   0  0  0  0  0  0  0  0  0  0  0  0
  -23.5140   26.8360   14.6120 H   0  0  0  0  0  0  0  0  0  0  0  0
  -25.5930   31.4810   15.4000 H   0  0  0  0  0  0  0  0  0  0  0  0
  -23.5200   28.6030   12.9690 H   0  0  0  0  0  0  0  0  0  0  0  0
  -21.9690   29.1760   13.4540 H   0  0  0  0  0  0  0  0  0  0  0  0
  -24.5380   29.3190   15.0340 H   0  0  0  0  0  0  0  0  0  0  0  0
  -22.0340   31.3380   12.9560 H   0  0  0  0  0  0  0  0  0  0  0  0
  -21.8410   31.9460   14.5710 H   0  0  0  0  0  0  0  0  0  0  0  0
  -22.7140   32.8750   13.3920 H   0  0  0  0  0  0  0  0  0  0  0  0
  -24.1970   30.4870   12.1440 H   0  0  0  0  0  0  0  0  0  0  0  0
  -25.6190   30.4710   13.1160 H   0  0  0  0  0  0  0  0  0  0  0  0
  -25.8430   32.3040   11.4920 H   0  0  0  0  0  0  0  0  0  0  0  0
  -24.2960   32.9500   11.8880 H   0  0  0  0  0  0  0  0  0  0  0  0
  -25.6300   33.8900   15.4170 H   0  0  0  0  0  0  0  0  0  0  0  0
  -24.1360   33.9710   14.5630 H   0  0  0  0  0  0  0  0  0  0  0  0
  2  1  1  0
  3  2  1  0
  4  3  1  0
  5  4  1  0
  6  5  1  0
  7  6  1  0
  8  4  1  1
  8  7  1  0
  9  8  1  0
 10  8  1  0
 11  1  1  0
 13 10  1  0
 14 13  1  0
 14  3  1  0
 15 14  1  1
 15 11  1  0
 16 15  1  0
 17 15  1  0
 18 17  1  0
 19 18  1  0
 19 12  1  0
 20 11  1  0
 20 19  1  0
  1 21  1  1
 22  1  1  0
  2 23  1  1
 24  2  1  0
  3 25  1  6
  4 26  1  1
  5 27  1  1
 28  5  1  0
  6 29  1  1
 30  6  1  0
  7 31  1  6
 32  7  1  0
  9 33  1  6
 34  9  1  0
 35  9  1  0
 10 36  1  6
 37 10  1  0
 11 38  1  1
 13 39  1  6
 40 13  1  0
 14 41  1  1
 16 42  1  6
 43 16  1  0
 44 16  1  0
 17 45  1  6
 46 17  1  0
 18 47  1  6
 48 18  1  0
 20 49  1  1
 50 20  1  0
M  END
$$$$
