
     RDKit          3D

 21 24  0  0  0  0  0  0  0  0999 V2000
   39.7220   -6.3210   -9.1740 C   0  0  0  0  0  0  0  0  0  0  0  0
   41.0850   -6.1940   -8.4780 C   0  0  0  0  0  0  0  0  0  0  0  0
   42.2780   -5.9470   -9.4340 C   0  0  0  0  0  0  0  0  0  0  0  0
   43.3880   -6.1140   -9.0610 O   0  0  0  0  0  0  0  0  0  0  0  0
   42.0320   -5.4650  -10.8690 C   0  0  0  0  0  0  0  0  0  0  0  0
   40.6220   -5.0080  -11.2220 C   0  0  2  0  0  0  0  0  0  0  0  0
   40.2910   -4.1430  -12.5380 C   0  0  0  0  0  0  0  0  0  0  0  0
   38.9910   -4.6910  -13.2610 C   0  0  0  0  0  0  0  0  0  0  0  0
   37.8160   -4.7550  -12.2980 C   0  0  2  0  0  0  0  0  0  0  0  0
   38.1360   -5.6770  -10.9780 C   0  0  1  0  0  0  0  0  0  0  0  0
   39.4250   -5.2420  -10.2390 C   0  0  1  0  0  0  0  0  0  0  0  0
   36.9670   -5.6980  -10.0420 C   0  0  0  0  0  0  0  0  0  0  0  0
   35.5460   -6.1480  -10.8220 C   0  0  0  0  0  0  0  0  0  0  0  0
   35.2950   -5.3650  -12.0870 C   0  0  1  0  0  0  0  0  0  0  0  0
   36.5440   -5.2210  -13.0200 C   0  0  1  0  0  0  0  0  0  0  0  0
   35.9870   -4.4610  -14.3340 C   0  0  0  0  0  0  0  0  0  0  0  0
   34.5120   -5.0020  -14.5590 C   0  0  0  0  0  0  0  0  0  0  0  0
   34.1130   -5.8230  -13.1370 C   0  0  2  0  0  0  0  0  0  0  0  0
   33.0080   -5.5130  -12.7330 O   0  0  0  0  0  0  0  0  0  0  0  0
   34.9260   -3.9500  -11.6440 C   0  0  0  0  0  0  0  0  0  0  0  0
   39.1310   -3.9200   -9.5310 C   0  0  0  0  0  0  0  0  0  0  0  0
  2  1  1  0
  3  2  1  0
  4  3  1  0
  5  3  1  0
  6  5  1  1
  7  6  1  0
  8  7  1  0
  9  8  1  6
 10  9  1  0
 11 10  1  0
 11  1  1  0
 11  6  1  0
 10 12  1  1
 13 12  1  0
 14 13  1  0
 15 14  1  0
 15  9  1  0
 15 16  1  6
 17 16  1  0
 18 17  1  0
 18 14  1  0
 18 19  1  1
 14 20  1  1
 11 21  1  1
M  END
$$$$
