
     RDKit          3D

 19 21  0  0  0  0  0  0  0  0999 V2000
   22.2700    6.9360   42.3890 C   0  0  0  0  0  0  0  0  0  0  0  0
   24.1250   13.9220   42.8080 O   0  0  0  0  0  0  0  0  0  0  0  0
   24.2100    9.6770   43.1460 C   0  0  0  0  0  0  0  0  0  0  0  0
   22.2420    9.7700   41.7520 C   0  0  0  0  0  0  0  0  0  0  0  0
   24.0760   11.0380   43.4220 C   0  0  0  0  0  0  0  0  0  0  0  0
   22.1080   11.1300   42.0330 C   0  0  0  0  0  0  0  0  0  0  0  0
   22.4160   13.8190   47.3490 C   0  0  0  0  0  0  0  0  0  0  0  0
   21.5070   13.1560   45.3350 C   0  0  0  0  0  0  0  0  0  0  0  0
   23.7440   13.9680   45.4820 C   0  0  0  0  0  0  0  0  0  0  0  0
   21.7000   15.4710   42.4120 C   0  0  0  0  0  0  0  0  0  0  0  0
   22.0440   14.6840   41.1460 C   0  0  0  0  0  0  0  0  0  0  0  0
   21.4020   13.3460   46.6410 N   0  0  0  0  0  0  0  0  0  0  0  0
   23.5690   14.1310   46.7830 N   0  0  0  0  0  0  0  0  0  0  0  0
   23.4390    7.7040   42.0460 O   0  0  0  0  0  0  0  0  0  0  0  0
   23.2920    9.0370   42.3120 C   0  0  0  0  0  0  0  0  0  0  0  0
   23.0240   11.7750   42.8700 C   0  0  0  0  0  0  0  0  0  0  0  0
   22.7070   13.4710   44.7020 C   0  0  0  0  0  0  0  0  0  0  0  0
   21.7110   13.9370   42.4410 C   0  0  1  0  0  0  0  0  0  0  0  0
   22.8980   13.2830   43.1880 C   0  0  1  0  0  0  0  0  0  0  0  0
  5  3  1  0
  6  4  1  0
 11 10  1  0
 12  8  1  0
 12  7  1  0
 13  9  1  0
 13  7  1  0
 14  1  1  0
 15 14  1  0
 15  4  1  0
 15  3  1  0
 16  6  1  0
 16  5  1  0
 17  8  1  0
 17  9  1  0
 18 10  1  1
 18 11  1  0
 19 18  1  0
 19 16  1  0
 19  2  1  6
 19 17  1  0
M  END
$$$$
