
     RDKit          3D

 38 42  0  0  0  0  0  0  0  0999 V2000
  -58.5270  -36.3280   15.5780 C   0  0  0  0  0  0  0  0  0  0  0  0
  -46.9340  -39.9300   21.8510 F   0  0  0  0  0  0  0  0  0  0  0  0
  -59.3740  -35.0810   13.7370 N   0  0  0  0  0  0  0  0  0  0  0  0
  -53.8970  -34.7750   19.7690 O   0  0  0  0  0  0  0  0  0  0  0  0
  -59.2400  -36.2420   14.3950 C   0  0  0  0  0  0  0  0  0  0  0  0
  -54.9030  -38.6220   20.9000 F   0  0  0  0  0  0  0  0  0  0  0  0
  -57.2900  -35.4430   17.3270 N   0  0  0  0  0  0  0  0  0  0  0  0
  -56.8250  -33.2930   17.9610 O   0  0  0  0  0  0  0  0  0  0  0  0
  -58.8030  -33.9760   14.2510 C   0  0  0  0  0  0  0  0  0  0  0  0
  -56.4620  -34.9460   19.5600 C   0  0  1  0  0  0  0  0  0  0  0  0
  -55.6130  -36.1390   19.5680 N   0  0  0  0  0  0  0  0  0  0  0  0
  -58.0690  -34.0000   15.4550 C   0  0  0  0  0  0  0  0  0  0  0  0
  -59.6510  -37.9350   19.1290 N   0  0  0  0  0  0  0  0  0  0  0  0
  -57.9130  -35.2170   16.1350 C   0  0  2  0  0  0  0  0  0  0  0  0
  -56.8740  -34.4920   18.1820 C   0  0  0  0  0  0  0  0  0  0  0  0
  -54.3170  -35.9340   19.7210 C   0  0  0  0  0  0  0  0  0  0  0  0
  -53.3310  -37.0430   19.8910 C   0  0  1  0  0  0  0  0  0  0  0  0
  -52.0220  -36.7980   19.4970 C   0  0  0  0  0  0  0  0  0  0  0  0
  -51.0390  -37.7630   19.6540 C   0  0  0  0  0  0  0  0  0  0  0  0
  -51.3460  -38.9960   20.2060 C   0  0  0  0  0  0  0  0  0  0  0  0
  -50.2210  -39.9450   20.3320 C   0  0  0  0  0  0  0  0  0  0  0  0
  -50.2170  -41.3110   19.7450 C   0  0  0  0  0  0  0  0  0  0  0  0
  -49.0920  -42.1120   19.9100 C   0  0  0  0  0  0  0  0  0  0  0  0
  -47.9970  -41.6350   20.6190 C   0  0  0  0  0  0  0  0  0  0  0  0
  -48.0060  -40.3580   21.1700 C   0  0  0  0  0  0  0  0  0  0  0  0
  -49.1020  -39.5140   21.0290 C   0  0  0  0  0  0  0  0  0  0  0  0
  -52.6370  -39.3040   20.6330 C   0  0  0  0  0  0  0  0  0  0  0  0
  -53.6540  -38.3550   20.4990 C   0  0  0  0  0  0  0  0  0  0  0  0
  -57.6630  -35.1080   20.4870 C   0  0  0  0  0  0  0  0  0  0  0  0
  -58.6380  -36.0610   19.8690 C   0  0  0  0  0  0  0  0  0  0  0  0
  -58.5740  -37.4500   19.8040 C   0  0  0  0  0  0  0  0  0  0  0  0
  -60.4480  -36.9470   18.7320 C   0  0  0  0  0  0  0  0  0  0  0  0
  -61.6220  -36.9080   18.0340 C   0  0  0  0  0  0  0  0  0  0  0  0
  -62.1920  -35.6660   17.7620 C   0  0  0  0  0  0  0  0  0  0  0  0
  -61.6210  -34.4660   18.1930 C   0  0  0  0  0  0  0  0  0  0  0  0
  -60.4280  -34.4640   18.9000 C   0  0  0  0  0  0  0  0  0  0  0  0
  -59.8560  -35.6850   19.1670 C   0  0  0  0  0  0  0  0  0  0  0  0
  -51.2750  -41.7900   19.0600 F   0  0  0  0  0  0  0  0  0  0  0  0
  5  3  1  0
  5  1  1  0
  9  3  1  0
 11 10  1  0
 12  9  1  0
 14 12  1  0
 14  1  1  0
 14  7  1  1
 15 10  1  0
 15  8  1  0
 15  7  1  0
 16 11  1  0
 16  4  1  0
 17 16  1  1
 18 17  1  0
 19 18  1  0
 20 19  1  0
 21 20  1  0
 22 21  1  0
 23 22  1  0
 24 23  1  0
 25 24  1  0
 25  2  1  0
 26 21  1  0
 26 25  1  0
 27 20  1  0
 28  6  1  0
 28 27  1  0
 28 17  1  0
 10 29  1  1
 30 29  1  0
 31 30  1  0
 31 13  1  0
 32 13  1  0
 33 32  1  0
 34 33  1  0
 35 34  1  0
 36 35  1  0
 37 36  1  0
 37 32  1  0
 37 30  1  0
 38 22  1  0
M  END
$$$$
