
     RDKit          3D

 43 48  0  0  0  0  0  0  0  0999 V2000
  -12.4170    8.8560  -19.4400 O   0  0  0  0  0  0  0  0  0  0  0  0
  -11.4920    8.8790  -18.5750 C   0  0  2  0  0  0  0  0  0  0  0  0
  -10.7530    7.8460  -18.1510 N   0  0  0  0  0  0  0  0  0  0  0  0
  -11.0260    6.5230  -18.3790 C   0  0  2  0  0  0  0  0  0  0  0  0
  -11.8190    5.9870  -19.3840 C   0  0  0  0  0  0  0  0  0  0  0  0
  -12.0660    4.6110  -19.4300 C   0  0  0  0  0  0  0  0  0  0  0  0
  -11.5640    3.7780  -18.4850 N   0  0  0  0  0  0  0  0  0  0  0  0
  -10.8110    4.2990  -17.5110 C   0  0  0  0  0  0  0  0  0  0  0  0
  -10.5530    5.6470  -17.4240 C   0  0  0  0  0  0  0  0  0  0  0  0
  -11.1930   10.1770  -17.8300 C   0  0  1  0  0  0  0  0  0  0  0  0
  -11.5350   10.1420  -16.3340 C   0  0  0  0  0  0  0  0  0  0  0  0
  -12.4240    8.9760  -15.9760 C   0  0  0  0  0  0  0  0  0  0  0  0
  -12.0370    7.8480  -15.1370 C   0  0  0  0  0  0  0  0  0  0  0  0
  -10.8630    7.5520  -14.5010 C   0  0  0  0  0  0  0  0  0  0  0  0
  -10.7900    6.3610  -13.7880 C   0  0  0  0  0  0  0  0  0  0  0  0
  -11.8810    5.5010  -13.7220 C   0  0  0  0  0  0  0  0  0  0  0  0
  -13.0890    5.7880  -14.3520 C   0  0  0  0  0  0  0  0  0  0  0  0
  -13.2030    6.9590  -15.0860 C   0  0  0  0  0  0  0  0  0  0  0  0
  -14.1900    7.5380  -15.8050 N   0  0  0  0  0  0  0  0  0  0  0  0
  -13.7510    8.7270  -16.3320 C   0  0  0  0  0  0  0  0  0  0  0  0
   -9.8330   10.6650  -17.9210 N   0  0  0  0  0  0  0  0  0  0  0  0
   -9.1580   10.7840  -19.0590 C   0  0  0  0  0  0  0  0  0  0  0  0
   -9.6210   10.3990  -20.1260 O   0  0  0  0  0  0  0  0  0  0  0  0
   -7.7960   11.4250  -19.0180 C   0  0  0  0  0  0  0  0  0  0  0  0
   -7.4300   12.3780  -17.9430 C   0  0  0  0  0  0  0  0  0  0  0  0
   -8.2950   12.6900  -16.9750 F   0  0  0  0  0  0  0  0  0  0  0  0
   -6.1830   12.9530  -17.9210 C   0  0  0  0  0  0  0  0  0  0  0  0
   -5.2540   12.6830  -18.9160 C   0  0  2  0  0  0  0  0  0  0  0  0
   -5.5750   11.7730  -19.9220 C   0  0  0  0  0  0  0  0  0  0  0  0
   -6.8350   11.1640  -19.9820 C   0  0  0  0  0  0  0  0  0  0  0  0
   -3.9660   13.2540  -18.8410 N   0  0  0  0  0  0  0  0  0  0  0  0
   -2.8860   12.6720  -19.6400 C   0  0  0  0  0  0  0  0  0  0  0  0
   -2.1380   13.7460  -20.3760 C   0  0  0  0  0  0  0  0  0  0  0  0
   -1.9340   14.9600  -19.5770 N   0  0  0  0  0  0  0  0  0  0  0  0
   -2.8490   15.3980  -18.5330 C   0  0  0  0  0  0  0  0  0  0  0  0
   -3.6170   14.2550  -17.8680 C   0  0  0  0  0  0  0  0  0  0  0  0
   -0.9360   15.8380  -20.0290 C   0  0  1  0  0  0  0  0  0  0  0  0
   -0.2560   15.5290  -21.1950 C   0  0  0  0  0  0  0  0  0  0  0  0
    0.6810   16.4060  -21.7220 C   0  0  0  0  0  0  0  0  0  0  0  0
    0.9120   17.6190  -21.1190 C   0  0  0  0  0  0  0  0  0  0  0  0
    2.0940   18.7580  -21.8650 Cl  0  0  0  0  0  0  0  0  0  0  0  0
    0.2110   17.9600  -19.9770 C   0  0  0  0  0  0  0  0  0  0  0  0
   -0.7130   17.0790  -19.4350 C   0  0  0  0  0  0  0  0  0  0  0  0
  2  1  1  1
  3  2  1  0
  4  3  1  1
  5  4  1  0
  6  5  1  0
  7  6  1  0
  8  7  1  0
  9  4  1  0
  9  8  1  0
 10  2  1  0
 10 11  1  1
 12 11  1  0
 13 12  1  0
 14 13  1  0
 15 14  1  0
 16 15  1  0
 17 16  1  0
 18 17  1  0
 18 13  1  0
 19 18  1  0
 20 19  1  0
 20 12  1  0
 21 10  1  0
 22 21  1  0
 23 22  1  0
 24 22  1  0
 25 24  1  0
 26 25  1  0
 27 25  1  0
 28 27  1  0
 29 28  1  0
 30 29  1  0
 30 24  1  0
 28 31  1  1
 32 31  1  0
 33 32  1  0
 34 33  1  0
 35 34  1  0
 36 35  1  0
 36 31  1  0
 37 34  1  6
 38 37  1  0
 39 38  1  0
 40 39  1  0
 41 40  1  0
 42 40  1  0
 43 37  1  0
 43 42  1  0
M  END
$$$$
