
     RDKit          3D

  7  7  0  0  0  0  0  0  0  0999 V2000
    0.8920   46.9500    6.2260 C   0  0  0  0  0  0  0  0  0  0  0  0
    0.7320   47.7030    4.9990 C   0  0  0  0  0  0  0  0  0  0  0  0
    1.5700   47.4890    3.9190 C   0  0  0  0  0  0  0  0  0  0  0  0
    1.4570   48.1800    2.7100 C   0  0  0  0  0  0  0  0  0  0  0  0
    0.4480   49.0880    2.5660 C   0  0  0  0  0  0  0  0  0  0  0  0
   -0.3650   49.3480    3.6240 C   0  0  0  0  0  0  0  0  0  0  0  0
   -0.2510   48.6380    4.7850 C   0  0  0  0  0  0  0  0  0  0  0  0
  2  1  1  0
  3  2  1  0
  4  3  1  0
  5  4  1  0
  6  5  1  0
  7  2  1  0
  7  6  1  0
M  END
$$$$
