
     RDKit          3D

 44 49  0  0  0  0  0  0  0  0999 V2000
   13.0880   -9.5140  -24.5240 O   0  0  0  0  0  0  0  0  0  0  0  0
   13.2560   -8.3640  -24.0490 C   0  0  0  0  0  0  0  0  0  0  0  0
   12.2920   -7.5920  -23.5600 N   0  0  0  0  0  0  0  0  0  0  0  0
   10.9470   -7.8790  -23.7370 C   0  0  0  0  0  0  0  0  0  0  0  0
   10.0350   -6.8220  -23.7530 C   0  0  0  0  0  0  0  0  0  0  0  0
    8.6610   -7.0700  -23.9590 C   0  0  0  0  0  0  0  0  0  0  0  0
    8.1680   -8.3010  -24.1540 N   0  0  0  0  0  0  0  0  0  0  0  0
    9.0200   -9.3360  -24.1190 C   0  0  0  0  0  0  0  0  0  0  0  0
   10.4220   -9.1500  -23.9410 C   0  0  0  0  0  0  0  0  0  0  0  0
   14.6850   -7.8160  -24.0290 C   0  0  1  0  0  0  0  0  0  0  0  0
   14.9890   -7.1860  -25.3910 C   0  0  0  0  0  0  0  0  0  0  0  0
   14.0620   -6.0370  -25.5980 C   0  0  1  0  0  0  0  0  0  0  0  0
   12.7450   -6.0730  -26.3030 C   0  0  2  0  0  0  0  0  0  0  0  0
   12.1030   -7.0560  -26.9980 C   0  0  0  0  0  0  0  0  0  0  0  0
   10.8600   -6.6870  -27.5940 C   0  0  0  0  0  0  0  0  0  0  0  0
   10.3260   -5.3910  -27.4730 C   0  0  0  0  0  0  0  0  0  0  0  0
   10.9900   -4.3970  -26.7510 C   0  0  0  0  0  0  0  0  0  0  0  0
   12.2320   -4.7150  -26.1800 C   0  0  0  0  0  0  0  0  0  0  0  0
   13.1630   -4.0030  -25.4530 N   0  0  0  0  0  0  0  0  0  0  0  0
   14.2530   -4.7460  -25.0890 C   0  0  0  0  0  0  0  0  0  0  0  0
   14.9870   -6.8900  -22.9460 N   0  0  0  0  0  0  0  0  0  0  0  0
   15.3850   -7.3210  -21.7470 C   0  0  1  0  0  0  0  0  0  0  0  0
   15.4120   -8.5050  -21.5470 O   0  0  0  0  0  0  0  0  0  0  0  0
   15.9960   -6.4950  -20.6540 C   0  0  2  0  0  0  0  0  0  0  0  0
   16.6650   -5.2080  -20.9740 C   0  0  0  0  0  0  0  0  0  0  0  0
   16.6500   -4.7530  -22.2430 F   0  0  0  0  0  0  0  0  0  0  0  0
   17.2620   -4.4690  -19.9490 C   0  0  0  0  0  0  0  0  0  0  0  0
   17.2430   -4.9060  -18.6180 C   0  0  1  0  0  0  0  0  0  0  0  0
   16.6200   -6.1340  -18.3290 C   0  0  0  0  0  0  0  0  0  0  0  0
   16.0100   -6.9160  -19.3390 C   0  0  0  0  0  0  0  0  0  0  0  0
   18.0290   -4.2080  -17.6660 N   0  0  0  0  0  0  0  0  0  0  0  0
   18.6120   -2.9320  -18.0360 C   0  0  0  0  0  0  0  0  0  0  0  0
   19.2080   -2.1000  -16.9140 C   0  0  0  0  0  0  0  0  0  0  0  0
   19.6110   -2.8330  -15.7120 N   0  0  0  0  0  0  0  0  0  0  0  0
   18.8690   -4.0390  -15.3090 C   0  0  0  0  0  0  0  0  0  0  0  0
   18.5580   -4.9430  -16.5150 C   0  0  0  0  0  0  0  0  0  0  0  0
   20.6160   -2.1500  -14.7650 S   0  0  1  0  0  0  0  0  0  0  0  0
   21.4670   -3.0090  -14.0120 O   0  0  0  0  0  0  0  0  0  0  0  0
   21.3520   -1.0900  -15.4010 O   0  0  0  0  0  0  0  0  0  0  0  0
   19.4490   -1.5000  -13.7260 C   0  0  2  0  0  0  0  0  0  0  0  0
   19.0300   -2.2840  -12.2390 S   0  0  0  0  0  0  0  0  0  0  0  0
   17.7280   -1.1730  -11.8340 C   0  0  0  0  0  0  0  0  0  0  0  0
   17.6330   -0.2510  -12.9250 C   0  0  0  0  0  0  0  0  0  0  0  0
   18.5720   -0.4300  -14.0000 C   0  0  0  0  0  0  0  0  0  0  0  0
  2  1  1  0
  3  2  1  0
  4  3  1  0
  5  4  1  0
  6  5  1  0
  7  6  1  0
  8  7  1  0
  9  8  1  0
  9  4  1  0
 10  2  1  0
 10 11  1  6
 12 11  1  1
 13 12  1  0
 13 14  1  6
 15 14  1  0
 16 15  1  0
 17 16  1  0
 18 13  1  0
 18 17  1  0
 19 18  1  0
 20 12  1  0
 20 19  1  0
 21 10  1  0
 22 21  1  0
 22 23  1  6
 24 22  1  0
 25 24  1  0
 26 25  1  0
 27 25  1  0
 28 27  1  0
 29 28  1  0
 24 30  1  6
 30 29  1  0
 28 31  1  6
 32 31  1  0
 33 32  1  0
 34 33  1  0
 35 34  1  0
 36 31  1  0
 36 35  1  0
 37 34  1  0
 37 38  1  1
 39 37  1  0
 40 37  1  0
 41 40  1  0
 42 41  1  0
 43 42  1  0
 44 43  1  0
 40 44  1  6
M  END
$$$$
