
     RDKit          3D

 37 40  0  0  0  0  0  0  0  0999 V2000
   -5.9810   12.0160   12.5090 F   0  0  0  0  0  0  0  0  0  0  0  0
   -4.8900   12.4090   13.1560 C   0  0  2  0  0  0  0  0  0  0  0  0
   -3.9580   11.4650   13.0740 F   0  0  0  0  0  0  0  0  0  0  0  0
   -5.1840   12.6260   14.4340 F   0  0  0  0  0  0  0  0  0  0  0  0
   -4.3610   13.7010   12.5350 C   0  0  0  0  0  0  0  0  0  0  0  0
   -3.1330   13.9820   13.2100 O   0  0  0  0  0  0  0  0  0  0  0  0
   -2.9890   15.2220   13.7500 C   0  0  0  0  0  0  0  0  0  0  0  0
   -1.8140   15.4490   14.4540 C   0  0  0  0  0  0  0  0  0  0  0  0
   -1.5680   16.6900   15.0250 C   0  0  0  0  0  0  0  0  0  0  0  0
   -3.9270   16.2390   13.6080 C   0  0  0  0  0  0  0  0  0  0  0  0
   -3.6820   17.4850   14.1770 C   0  0  0  0  0  0  0  0  0  0  0  0
   -2.5140   17.7000   14.9010 C   0  0  2  0  0  0  0  0  0  0  0  0
   -2.2280   18.9470   15.4390 C   0  0  2  0  0  0  0  0  0  0  0  0
   -3.0520   20.0300   15.1570 C   0  0  0  0  0  0  0  0  0  0  0  0
   -2.7250   21.2950   15.6590 N   0  0  0  0  0  0  0  0  0  0  0  0
   -1.0620   19.1400   16.1690 C   0  0  0  0  0  0  0  0  0  0  0  0
   -0.7680   20.4080   16.6570 C   0  0  0  0  0  0  0  0  0  0  0  0
   -1.6300   21.4720   16.4110 C   0  0  1  0  0  0  0  0  0  0  0  0
   -1.3150   22.7540   16.8510 C   0  0  2  0  0  0  0  0  0  0  0  0
   -1.2970   23.5710   15.8030 F   0  0  0  0  0  0  0  0  0  0  0  0
   -0.1080   22.7390   17.4080 F   0  0  0  0  0  0  0  0  0  0  0  0
   -2.3290   23.2880   17.8680 C   0  0  1  0  0  0  0  0  0  0  0  0
   -3.7360   23.2300   17.2720 C   0  0  0  0  0  0  0  0  0  0  0  0
   -4.7030   23.8720   18.1930 N   0  0  0  0  0  0  0  0  0  0  0  0
   -5.5050   24.6270   17.8810 N   0  0  0  0  0  0  0  0  0  0  0  0
   -6.1660   24.9950   18.7920 N   0  0  0  0  0  0  0  0  0  0  0  0
   -5.8650   24.5080   19.7840 N   0  0  0  0  0  0  0  0  0  0  0  0
   -4.8580   23.6920   19.4980 C   0  0  0  0  0  0  0  0  0  0  0  0
   -2.2870   22.4650   19.0370 O   0  0  0  0  0  0  0  0  0  0  0  0
   -1.9360   24.5830   18.2070 C   0  0  2  0  0  0  0  0  0  0  0  0
   -2.5150   25.7260   17.6630 C   0  0  0  0  0  0  0  0  0  0  0  0
   -3.5620   25.6270   16.7980 F   0  0  0  0  0  0  0  0  0  0  0  0
   -2.0440   26.9860   18.0170 C   0  0  0  0  0  0  0  0  0  0  0  0
   -0.9750   27.1090   18.8960 C   0  0  0  0  0  0  0  0  0  0  0  0
   -0.5190   28.3400   19.2340 F   0  0  0  0  0  0  0  0  0  0  0  0
   -0.3750   25.9730   19.4240 C   0  0  0  0  0  0  0  0  0  0  0  0
   -0.8530   24.7170   19.0690 C   0  0  0  0  0  0  0  0  0  0  0  0
  2  1  1  6
  3  2  1  0
  4  2  1  0
  5  2  1  0
  6  5  1  0
  7  6  1  0
  8  7  1  0
  9  8  1  0
 10  7  1  0
 11 10  1  0
 12 11  1  6
 12  9  1  0
 13 12  1  0
 13 14  1  6
 15 14  1  0
 16 13  1  0
 17 16  1  0
 18 15  1  0
 18 17  1  6
 19 18  1  0
 19 20  1  6
 21 19  1  0
 22 19  1  0
 23 22  1  0
 24 23  1  0
 25 24  1  0
 26 25  1  0
 27 26  1  0
 28 27  1  0
 28 24  1  0
 22 29  1  1
 30 22  1  0
 31 30  1  0
 32 31  1  0
 33 31  1  0
 34 33  1  0
 35 34  1  0
 36 34  1  0
 37 36  1  0
 30 37  1  6
M  END
$$$$
