
     RDKit          3D

 19 20  0  0  0  0  0  0  0  0999 V2000
  -45.4780   41.7400  -12.3160 C   0  0  0  0  0  0  0  0  0  0  0  0
  -44.8050   42.0820  -11.1300 C   0  0  0  0  0  0  0  0  0  0  0  0
  -45.5140   42.9910   -9.8520 Cl  0  0  0  0  0  0  0  0  0  0  0  0
  -43.4330   41.7160  -10.8000 C   0  0  2  0  0  0  0  0  0  0  0  0
  -42.7680   40.8710  -11.8380 C   0  0  0  0  0  0  0  0  0  0  0  0
  -41.0940   40.2760  -11.5410 Cl  0  0  0  0  0  0  0  0  0  0  0  0
  -43.4360   40.5370  -13.0390 C   0  0  0  0  0  0  0  0  0  0  0  0
  -44.7680   40.9880  -13.2920 C   0  0  0  0  0  0  0  0  0  0  0  0
  -42.9070   41.9120   -9.5100 N   0  0  0  0  0  0  0  0  0  0  0  0
  -41.3370   41.3540   -7.6910 C   0  0  2  0  0  0  0  0  0  0  0  0
  -42.4660   40.9530   -8.6330 C   0  0  2  0  0  0  0  0  0  0  0  0
  -42.8990   39.6340   -8.5830 C   0  0  0  0  0  0  0  0  0  0  0  0
  -42.3230   38.7310   -7.7470 C   0  0  0  0  0  0  0  0  0  0  0  0
  -41.2810   39.0820   -6.8640 C   0  0  0  0  0  0  0  0  0  0  0  0
  -40.8170   40.3870   -6.8150 C   0  0  0  0  0  0  0  0  0  0  0  0
  -40.7870   42.7660   -7.6080 C   0  0  0  0  0  0  0  0  0  0  0  0
  -41.6170   43.5970   -6.6480 C   0  0  0  0  0  0  0  0  0  0  0  0
  -41.1880   43.7720   -5.4600 O   0  0  0  0  0  0  0  0  0  0  0  0
  -42.6790   44.1010   -7.1150 O   0  0  0  0  0  0  0  0  0  0  0  0
  2  1  1  0
  3  2  1  0
  4  2  1  0
  5  4  1  0
  6  5  1  0
  7  5  1  0
  8  1  1  0
  8  7  1  0
  4  9  1  1
 11 10  1  0
 11  9  1  6
 12 11  1  0
 13 12  1  0
 14 13  1  0
 15 14  1  0
 15 10  1  0
 10 16  1  1
 17 16  1  0
 18 17  1  0
 19 17  1  0
M  END
$$$$
