
     RDKit          3D

 22 25  0  0  0  0  0  0  0  0999 V2000
    6.8040   13.3050   20.6990 C   0  0  1  0  0  0  0  0  0  0  0  0
    8.1610   13.8590   20.2620 C   0  0  0  0  0  0  0  0  0  0  0  0
    8.9320   12.6070   19.7770 C   0  0  2  0  0  0  0  0  0  0  0  0
    9.1470   12.2330   18.4550 C   0  0  0  0  0  0  0  0  0  0  0  0
    5.8160   14.4710   20.8570 C   0  0  0  0  0  0  0  0  0  0  0  0
    3.9870   12.8420   20.5790 C   0  0  1  0  0  0  0  0  0  0  0  0
    2.6140   13.3910   19.8060 C   0  0  0  0  0  0  0  0  0  0  0  0
    2.3410   14.7970   20.3910 C   0  0  0  0  0  0  0  0  0  0  0  0
    3.5290   15.2800   20.9440 C   0  0  0  0  0  0  0  0  0  0  0  0
    4.8000   11.9260   19.6470 C   0  0  0  0  0  0  0  0  0  0  0  0
   10.0210   10.6470   19.7810 C   0  0  0  0  0  0  0  0  0  0  0  0
   10.6520    9.4810   20.3180 C   0  0  0  0  0  0  0  0  0  0  0  0
   10.7270    9.2980   21.7020 C   0  0  0  0  0  0  0  0  0  0  0  0
   10.1710   10.2710   22.5560 C   0  0  0  0  0  0  0  0  0  0  0  0
    9.5240   11.4030   22.0280 C   0  0  0  0  0  0  0  0  0  0  0  0
    9.4590   11.5910   20.6220 C   0  0  0  0  0  0  0  0  0  0  0  0
    9.0020   12.3410   22.8700 F   0  0  0  0  0  0  0  0  0  0  0  0
    4.5490   13.9550   20.7900 N   0  0  0  0  0  0  0  0  0  0  0  0
    6.3620   12.1880   19.7230 N   0  0  0  0  0  0  0  0  0  0  0  0
    9.8070   11.0650   18.4810 N   0  0  0  0  0  0  0  0  0  0  0  0
    6.1480   15.6050   21.0480 O   0  0  0  0  0  0  0  0  0  0  0  0
    4.2940   11.0750   18.9540 O   0  0  0  0  0  0  0  0  0  0  0  0
  1  2  1  6
  3  2  1  6
  4  3  1  0
  5  1  1  0
  6  7  1  6
  8  7  1  0
  9  8  1  0
 10  6  1  0
 12 11  1  0
 13 12  1  0
 14 13  1  0
 15 14  1  0
 16 11  1  0
 16  3  1  0
 16 15  1  0
 17 15  1  0
 18  9  1  0
 18  6  1  0
 18  5  1  0
 19 10  1  0
 19  1  1  0
 20 11  1  0
 20  4  1  0
 21  5  1  0
 22 10  1  0
M  END
$$$$
