
     RDKit          3D

 36 37  0  0  0  0  0  0  0  0999 V2000
    5.3040   -4.0880   -3.1270 O   0  0  0  0  0  0  0  0  0  0  0  0
    5.1540   -3.5310   -1.8260 C   0  0  2  0  0  0  0  0  0  0  0  0
    3.6630   -3.7880   -1.6720 C   0  0  0  0  0  0  0  0  0  0  0  0
    3.4270   -5.2670   -1.5820 C   0  0  0  0  0  0  0  0  0  0  0  0
    5.3000   -2.0340   -1.9080 C   0  0  1  0  0  0  0  0  0  0  0  0
    5.1240   -1.7240   -0.4330 C   0  0  0  0  0  0  0  0  0  0  0  0
    6.7170   -1.5670   -1.8770 C   0  0  0  0  0  0  0  0  0  0  0  0
    7.2850   -1.2170   -3.0260 C   0  0  0  0  0  0  0  0  0  0  0  0
    8.6910   -1.1290   -3.3010 C   0  0  0  0  0  0  0  0  0  0  0  0
    9.0590   -1.0670   -4.5920 C   0  0  0  0  0  0  0  0  0  0  0  0
   10.5000   -0.7950   -4.7290 C   0  0  1  0  0  0  0  0  0  0  0  0
   11.1950   -0.6670   -3.7300 O   0  0  0  0  0  0  0  0  0  0  0  0
   11.1680   -1.1880   -6.0070 C   0  0  2  0  0  0  0  0  0  0  0  0
   10.7110   -0.0650   -6.9400 C   0  0  0  0  0  0  0  0  0  0  0  0
   10.5810   -2.3710   -6.7080 C   0  0  0  0  0  0  0  0  0  0  0  0
   10.6780   -3.6110   -5.8260 C   0  0  2  0  0  0  0  0  0  0  0  0
   12.1760   -3.8450   -5.6850 C   0  0  0  0  0  0  0  0  0  0  0  0
   10.1590   -4.8660   -6.4180 C   0  0  2  0  0  0  0  0  0  0  0  0
   10.5280   -4.7910   -7.8190 O   0  0  0  0  0  0  0  0  0  0  0  0
   10.9660   -6.0780   -8.3020 C   0  0  2  0  0  0  0  0  0  0  0  0
   12.2410   -6.2010   -7.6730 O   0  0  0  0  0  0  0  0  0  0  0  0
   13.0080   -7.3400   -8.0520 C   0  0  2  0  0  0  0  0  0  0  0  0
   14.0690   -7.5230   -7.0260 C   0  0  0  0  0  0  0  0  0  0  0  0
   13.4130   -7.4760   -9.4900 C   0  0  0  0  0  0  0  0  0  0  0  0
   12.0750   -7.4150  -10.1720 C   0  0  2  0  0  0  0  0  0  0  0  0
   12.2090   -7.4220  -11.6400 N   0  0  0  0  0  0  0  0  0  0  0  0
   13.3330   -6.6100  -12.0950 C   0  0  0  0  0  0  0  0  0  0  0  0
   12.4610   -8.7840  -12.1200 C   0  0  0  0  0  0  0  0  0  0  0  0
   11.4130   -6.1160   -9.7340 C   0  0  1  0  0  0  0  0  0  0  0  0
   10.2350   -6.0180  -10.4930 O   0  0  0  0  0  0  0  0  0  0  0  0
    8.7040   -4.6060   -6.4340 C   0  0  1  0  0  0  0  0  0  0  0  0
    8.2330   -5.8040   -7.2190 C   0  0  0  0  0  0  0  0  0  0  0  0
    8.1130   -4.9340   -5.1110 C   0  0  0  0  0  0  0  0  0  0  0  0
    7.0080   -4.3400   -4.6590 C   0  0  0  0  0  0  0  0  0  0  0  0
    6.5890   -4.4440   -3.2330 C   0  0  0  0  0  0  0  0  0  0  0  0
    7.2100   -4.8000   -2.2470 O   0  0  0  0  0  0  0  0  0  0  0  0
  2  1  1  0
  2  3  1  6
  4  3  1  0
  5  2  1  0
  5  6  1  1
  7  5  1  0
  8  7  1  0
  9  8  1  0
 10  9  1  0
 11 10  1  0
 11 12  1  1
 13 11  1  0
 13 14  1  6
 15 13  1  0
 16 15  1  0
 16 17  1  6
 18 16  1  0
 18 19  1  6
 20 19  1  1
 21 20  1  0
 22 21  1  0
 22 23  1  1
 24 22  1  0
 25 24  1  0
 25 26  1  6
 27 26  1  0
 28 26  1  0
 29 25  1  0
 29 20  1  0
 29 30  1  6
 31 18  1  0
 31 32  1  6
 33 31  1  0
 34 33  1  0
 35  1  1  0
 35 34  1  0
 36 35  1  0
M  END
$$$$
