
     RDKit          3D

 12 12  0  0  0  0  0  0  0  0999 V2000
   75.9110   78.8660   42.0050 C   0  0  0  0  0  0  0  0  0  0  0  0
   75.7750   77.6750   42.9270 C   0  0  0  0  0  0  0  0  0  0  0  0
   75.1190   77.8020   44.1460 C   0  0  0  0  0  0  0  0  0  0  0  0
   75.0160   76.7000   44.9820 C   0  0  0  0  0  0  0  0  0  0  0  0
   75.5530   75.4800   44.5790 C   0  0  2  0  0  0  0  0  0  0  0  0
   76.1880   75.3560   43.3430 C   0  0  0  0  0  0  0  0  0  0  0  0
   76.2880   76.4560   42.5190 C   0  0  0  0  0  0  0  0  0  0  0  0
   75.3840   74.3730   45.3980 O   0  0  0  0  0  0  0  0  0  0  0  0
   76.5730   73.4770   45.9570 P   0  0  0  0  0  0  0  0  0  0  0  0
   77.6480   74.3770   46.5980 O   0  0  0  0  0  0  0  0  0  0  0  0
   77.1280   72.6900   44.7230 O   0  0  0  0  0  0  0  0  0  0  0  0
   75.9250   72.5700   47.0470 O   0  0  0  0  0  0  0  0  0  0  0  0
  2  1  1  0
  3  2  1  0
  4  3  1  0
  5  4  1  0
  6  5  1  0
  7  6  1  0
  7  2  1  0
  5  8  1  6
  9  8  1  0
 10  9  1  0
 11  9  1  0
 12  9  1  0
M  END
$$$$
