
     RDKit          3D

 22 22  0  0  0  0  0  0  0  0999 V2000
  -21.9710   -1.9240  -15.6940 O   0  0  0  0  0  0  0  0  0  0  0  0
  -23.0680   -2.1120  -16.8040 P   0  0  0  0  0  0  0  0  0  0  0  0
  -24.5240   -2.0250  -16.2070 O   0  0  0  0  0  0  0  0  0  0  0  0
  -22.8950   -1.0550  -17.9680 O   0  0  0  0  0  0  0  0  0  0  0  0
  -22.8200   -3.5710  -17.3810 O   0  0  0  0  0  0  0  0  0  0  0  0
  -23.6820   -4.2380  -18.2640 C   0  0  0  0  0  0  0  0  0  0  0  0
  -23.9410   -3.7400  -19.5320 C   0  0  0  0  0  0  0  0  0  0  0  0
  -24.7810   -4.4290  -20.3860 C   0  0  0  0  0  0  0  0  0  0  0  0
  -25.3530   -5.6300  -19.9860 C   0  0  0  0  0  0  0  0  0  0  0  0
  -26.2570   -6.3840  -20.9330 C   0  0  1  0  0  0  0  0  0  0  0  0
  -25.4530   -7.2410  -21.8900 C   0  0  2  0  0  0  0  0  0  0  0  0
  -25.0800   -6.1380  -18.7260 C   0  0  0  0  0  0  0  0  0  0  0  0
  -24.2450   -5.4450  -17.8730 C   0  0  0  0  0  0  0  0  0  0  0  0
  -23.5440   -2.8940  -19.8150 H   0  0  0  0  0  0  0  0  0  0  0  0
  -24.9690   -4.0740  -21.2750 H   0  0  0  0  0  0  0  0  0  0  0  0
  -26.8560   -6.9570  -20.4150 H   0  0  0  0  0  0  0  0  0  0  0  0
  -26.7900   -5.7430  -21.4450 H   0  0  0  0  0  0  0  0  0  0  0  0
  -25.1070   -8.0250  -21.4150 H   0  0  0  0  0  0  0  0  0  0  0  0
  -24.7030   -6.7190  -22.2450 H   0  0  0  0  0  0  0  0  0  0  0  0
  -26.0270   -7.5330  -22.6280 H   0  0  0  0  0  0  0  0  0  0  0  0
  -25.4790   -6.9820  -18.4420 H   0  0  0  0  0  0  0  0  0  0  0  0
  -24.0550   -5.8030  -16.9850 H   0  0  0  0  0  0  0  0  0  0  0  0
  2  1  1  0
  3  2  1  0
  4  2  1  0
  5  2  1  0
  6  5  1  0
  7  6  1  0
  8  7  1  0
  9  8  1  0
 10  9  1  0
 11 10  1  0
 12  9  1  0
 13 12  1  0
 13  6  1  0
 14  7  1  0
 15  8  1  0
 10 16  1  1
 17 10  1  0
 11 18  1  1
 19 11  1  0
 20 11  1  0
 21 12  1  0
 22 13  1  0
M  END
$$$$
