
     RDKit          3D

 13 13  0  0  0  0  0  0  0  0999 V2000
  -23.7880   -4.6280  -18.0550 C   0  0  0  0  0  0  0  0  0  0  0  0
  -24.0380   -5.5360  -17.0390 C   0  0  0  0  0  0  0  0  0  0  0  0
  -24.9050   -6.5930  -17.2570 C   0  0  0  0  0  0  0  0  0  0  0  0
  -25.5120   -6.7510  -18.4890 C   0  0  0  0  0  0  0  0  0  0  0  0
  -25.2620   -5.8460  -19.5040 C   0  0  0  0  0  0  0  0  0  0  0  0
  -25.9360   -6.0370  -20.8430 C   0  0  0  0  0  0  0  0  0  0  0  0
  -25.7030   -7.4340  -21.3810 C   0  0  0  0  0  0  0  0  0  0  0  0
  -24.3980   -4.7830  -19.2920 C   0  0  0  0  0  0  0  0  0  0  0  0
  -23.0120   -1.0630  -17.2450 O   0  0  0  0  0  0  0  0  0  0  0  0
  -22.0800   -2.7500  -15.5240 O   0  0  0  0  0  0  0  0  0  0  0  0
  -24.6020   -2.7010  -16.0660 O   0  0  0  0  0  0  0  0  0  0  0  0
  -22.9060   -3.5570  -17.8370 O   0  0  0  0  0  0  0  0  0  0  0  0
  -23.1530   -2.5240  -16.6630 P   0  0  0  0  0  0  0  0  0  0  0  0
  2  1  1  0
  3  2  1  0
  4  3  1  0
  5  4  1  0
  6  5  1  0
  7  6  1  0
  8  5  1  0
  8  1  1  0
 12  1  1  0
 13 12  1  0
 13  9  1  0
 13 11  1  0
 13 10  1  0
M  END
$$$$
