
     RDKit          3D

 21 20  0  0  0  0  0  0  0  0999 V2000
    5.2030   26.6280   27.4130 C   0  0  0  0  0  0  0  0  0  0  0  0
    4.0380   26.4780   28.4070 C   0  0  0  0  0  0  0  0  0  0  0  0
    3.6230   27.7010   28.9450 C   0  0  0  0  0  0  0  0  0  0  0  0
    3.2530   27.8860   30.2790 C   0  0  0  0  0  0  0  0  0  0  0  0
    3.2250   26.8580   31.2470 C   0  0  0  0  0  0  0  0  0  0  0  0
    2.2980   27.2260   32.4220 C   0  0  2  0  0  0  0  0  0  0  0  0
    2.4360   26.3380   33.5680 O   0  0  0  0  0  0  0  0  0  0  0  0
    0.8030   27.2890   32.0310 C   0  0  0  0  0  0  0  0  0  0  0  0
    0.2460   26.7870   30.8650 C   0  0  0  0  0  0  0  0  0  0  0  0
   -1.1260   26.9660   30.6930 C   0  0  0  0  0  0  0  0  0  0  0  0
   -1.8500   26.5120   29.5950 C   0  0  0  0  0  0  0  0  0  0  0  0
   -1.2630   25.8110   28.5290 C   0  0  0  0  0  0  0  0  0  0  0  0
   -1.2640   26.5930   27.2130 C   0  0  0  0  0  0  0  0  0  0  0  0
   -0.1320   27.6410   27.2130 C   0  0  0  0  0  0  0  0  0  0  0  0
   -0.1740   28.5490   25.9800 C   0  0  0  0  0  0  0  0  0  0  0  0
    0.8200   29.7220   26.1380 C   0  0  0  0  0  0  0  0  0  0  0  0
    0.8530   30.6800   24.9200 C   0  0  0  0  0  0  0  0  0  0  0  0
   -0.5430   31.1590   24.4420 C   0  0  0  0  0  0  0  0  0  0  0  0
   -1.3140   31.9970   25.4910 C   0  0  0  0  0  0  0  0  0  0  0  0
   -0.6600   32.8520   26.1530 O   0  0  0  0  0  0  0  0  0  0  0  0
   -2.5440   31.7690   25.6210 O   0  0  0  0  0  0  0  0  0  0  0  0
  2  1  1  0
  3  2  1  0
  4  3  1  0
  5  4  1  0
  6  5  1  0
  6  7  1  1
  8  6  1  0
  9  8  1  0
 10  9  1  0
 11 10  1  0
 12 11  1  0
 13 12  1  0
 14 13  1  0
 15 14  1  0
 16 15  1  0
 17 16  1  0
 18 17  1  0
 19 18  1  0
 20 19  1  0
 21 19  1  0
M  END
$$$$
