
     RDKit          3D

 21 21  0  0  0  0  0  0  0  0999 V2000
   -2.5650   31.8330   25.7970 O   0  0  0  0  0  0  0  0  0  0  0  0
   -1.3380   32.0940   25.6380 C   0  0  0  0  0  0  0  0  0  0  0  0
   -0.7070   32.9040   26.3750 O   0  0  0  0  0  0  0  0  0  0  0  0
   -0.6060   31.4070   24.4970 C   0  0  0  0  0  0  0  0  0  0  0  0
    0.7700   30.8550   24.8890 C   0  0  0  0  0  0  0  0  0  0  0  0
    0.7440   29.9260   26.1040 C   0  0  0  0  0  0  0  0  0  0  0  0
   -0.1090   28.6650   25.9130 C   0  0  0  0  0  0  0  0  0  0  0  0
   -0.1450   27.8990   27.2290 C   0  0  0  0  0  0  0  0  0  0  0  0
   -1.1160   26.7180   27.2370 C   0  0  0  0  0  0  0  0  0  0  0  0
   -1.0270   25.9900   28.5810 C   0  0  0  0  0  0  0  0  0  0  0  0
   -1.7870   26.7550   29.6700 C   0  0  0  0  0  0  0  0  0  0  0  0
   -1.2380   26.7970   31.1010 C   0  0  0  0  0  0  0  0  0  0  0  0
    0.0500   26.0910   31.5230 C   0  0  0  0  0  0  0  0  0  0  0  0
    0.6700   26.9460   32.6280 C   0  0  1  0  0  0  0  0  0  0  0  0
    1.7610   26.2980   33.2740 O   0  0  0  0  0  0  0  0  0  0  0  0
    2.1240   27.4010   32.4320 C   0  0  1  0  0  0  0  0  0  0  0  0
    2.8730   26.8810   31.2070 C   0  0  0  0  0  0  0  0  0  0  0  0
    2.7310   27.8510   30.0360 C   0  0  0  0  0  0  0  0  0  0  0  0
    3.8480   27.7080   28.9960 C   0  0  0  0  0  0  0  0  0  0  0  0
    3.7800   26.3910   28.2440 C   0  0  0  0  0  0  0  0  0  0  0  0
    4.9640   26.2110   27.3150 C   0  0  0  0  0  0  0  0  0  0  0  0
  2  1  1  0
  3  2  1  0
  4  2  1  0
  5  4  1  0
  6  5  1  0
  7  6  1  0
  8  7  1  0
  9  8  1  0
 10  9  1  0
 11 10  1  0
 12 11  1  0
 13 12  1  0
 14 13  1  6
 15 14  1  0
 16 14  1  0
 16 15  1  0
 16 17  1  6
 18 17  1  0
 19 18  1  0
 20 19  1  0
 21 20  1  0
M  END
$$$$
