
     RDKit          3D

 34 35  0  0  0  0  0  0  0  0999 V2000
    9.8770   38.8450   17.0040 C   0  0  0  0  0  0  0  0  0  0  0  0
    8.4650   39.3670   17.1630 C   0  0  1  0  0  0  0  0  0  0  0  0
    7.5840   38.4710   17.5620 C   0  0  0  0  0  0  0  0  0  0  0  0
    6.1940   38.8430   17.9840 C   0  0  0  0  0  0  0  0  0  0  0  0
    5.1190   38.0610   17.1600 C   0  0  1  0  0  0  0  0  0  0  0  0
    3.6170   38.3950   17.5970 C   0  0  2  0  0  0  0  0  0  0  0  0
    2.5170   38.0170   16.6140 C   0  0  0  0  0  0  0  0  0  0  0  0
    3.4770   39.0460   18.7680 C   0  0  0  0  0  0  0  0  0  0  0  0
    2.2310   39.4570   19.3070 C   0  0  1  0  0  0  0  0  0  0  0  0
    1.8950   39.9450   20.4580 C   0  0  0  0  0  0  0  0  0  0  0  0
    0.1960   40.3190   20.5710 S   0  0  0  0  0  0  0  0  0  0  0  0
    0.0760   39.7760   18.9370 C   0  0  0  0  0  0  0  0  0  0  0  0
   -1.2880   39.8210   18.3090 C   0  0  0  0  0  0  0  0  0  0  0  0
    1.1340   39.3860   18.3930 N   0  0  0  0  0  0  0  0  0  0  0  0
    8.2070   40.8740   17.3890 C   0  0  0  0  0  0  0  0  0  0  0  0
    8.7970   41.7700   16.3080 C   0  0  0  0  0  0  0  0  0  0  0  0
    7.9280   41.6370   15.0440 C   0  0  0  0  0  0  0  0  0  0  0  0
    6.8760   42.6040   14.5620 C   0  0  2  0  0  0  0  0  0  0  0  0
    5.5730   42.7620   15.2390 C   0  0  0  0  0  0  0  0  0  0  0  0
    6.4790   41.8110   13.2160 C   0  0  2  0  0  0  0  0  0  0  0  0
    7.7120   41.7730   12.3970 O   0  0  0  0  0  0  0  0  0  0  0  0
    5.1660   42.3050   12.4820 C   0  0  1  0  0  0  0  0  0  0  0  0
    5.2450   43.7150   11.9170 C   0  0  0  0  0  0  0  0  0  0  0  0
    4.7770   41.3620   11.3450 C   0  0  0  0  0  0  0  0  0  0  0  0
    5.4670   41.4750   10.3210 O   0  0  0  0  0  0  0  0  0  0  0  0
    3.6100   40.3800   11.6060 C   0  0  1  0  0  0  0  0  0  0  0  0
    2.3030   41.0550   11.9450 C   0  0  0  0  0  0  0  0  0  0  0  0
    3.4590   39.3370   10.4970 C   0  0  0  0  0  0  0  0  0  0  0  0
    3.9140   39.5660   12.9630 C   0  0  1  0  0  0  0  0  0  0  0  0
    2.8010   38.7970   13.4340 O   0  0  0  0  0  0  0  0  0  0  0  0
    4.9930   38.5220   12.8860 C   0  0  0  0  0  0  0  0  0  0  0  0
    5.2650   37.9150   14.3070 C   0  0  0  0  0  0  0  0  0  0  0  0
    5.8750   36.8730   14.4020 O   0  0  0  0  0  0  0  0  0  0  0  0
    4.7990   38.6050   15.5110 O   0  0  0  0  0  0  0  0  0  0  0  0
  2  1  1  1
  3  2  1  0
  4  3  1  0
  5  4  1  1
  6  5  1  0
  6  7  1  6
  8  6  1  0
  9  8  1  6
 10  9  1  0
 11 10  1  0
 12 11  1  0
 13 12  1  0
 14 12  1  0
 14  9  1  0
 15  2  1  0
 16 15  1  0
 17 16  1  0
 18 17  1  0
 18 19  1  1
 20 18  1  0
 20 21  1  6
 22 20  1  0
 22 23  1  6
 24 22  1  0
 25 24  1  0
 26 24  1  0
 26 27  1  1
 28 26  1  0
 29 26  1  0
 29 30  1  6
 31 29  1  0
 32 31  1  0
 33 32  1  0
 34 32  1  0
 34  5  1  0
M  END
$$$$
