
     RDKit          3D

 11 12  0  0  0  0  0  0  0  0999 V2000
   -8.2940   -6.6840   -3.9970 N   0  0  0  0  0  0  0  0  0  0  0  0
   -7.8400   -7.1980   -2.7930 C   0  0  0  0  0  0  0  0  0  0  0  0
   -7.2140   -8.2390   -3.0250 N   0  0  0  0  0  0  0  0  0  0  0  0
   -7.1990   -8.4920   -4.3220 C   0  0  0  0  0  0  0  0  0  0  0  0
   -7.8720   -7.5270   -4.9560 C   0  0  0  0  0  0  0  0  0  0  0  0
   -8.1550   -7.3230   -6.4200 C   0  0  0  0  0  0  0  0  0  0  0  0
   -8.3350   -5.9840   -6.8980 C   0  0  0  0  0  0  0  0  0  0  0  0
   -8.6070   -5.7810   -8.3040 C   0  0  0  0  0  0  0  0  0  0  0  0
   -8.6840   -6.9120   -9.1540 C   0  0  0  0  0  0  0  0  0  0  0  0
   -8.5020   -8.2350   -8.6700 C   0  0  0  0  0  0  0  0  0  0  0  0
   -8.2360   -8.4010   -7.2780 C   0  0  0  0  0  0  0  0  0  0  0  0
  2  1  1  0
  3  2  1  0
  4  3  1  0
  5  4  1  0
  5  1  1  0
  6  5  1  0
  7  6  1  0
  8  7  1  0
  9  8  1  0
 10  9  1  0
 11 10  1  0
 11  6  1  0
M  END
$$$$
