
     RDKit          3D

 28 29  0  0  0  0  0  0  0  0999 V2000
    5.4000    7.6000   18.6770 O   0  0  0  0  0  0  0  0  0  0  0  0
    5.0700    6.4000   18.8210 C   0  0  0  0  0  0  0  0  0  0  0  0
    5.6480    5.6350   19.9420 C   0  0  0  0  0  0  0  0  0  0  0  0
    6.5250    6.2390   20.8380 C   0  0  0  0  0  0  0  0  0  0  0  0
    7.0470    5.5060   21.9030 C   0  0  0  0  0  0  0  0  0  0  0  0
    6.6370    4.1720   22.0370 C   0  0  0  0  0  0  0  0  0  0  0  0
    5.7520    3.5290   21.1690 C   0  0  0  0  0  0  0  0  0  0  0  0
    5.2100    4.2180   20.0950 C   0  0  0  0  0  0  0  0  0  0  0  0
    4.3110    3.6300   19.2470 N   0  0  0  0  0  0  0  0  0  0  0  0
    3.7550    4.2610   18.1920 C   0  0  0  0  0  0  0  0  0  0  0  0
    2.7690    3.5460   17.2810 C   0  0  0  0  0  0  0  0  0  0  0  0
    4.1060    5.6940   17.9150 C   0  0  0  0  0  0  0  0  0  0  0  0
    3.4730    6.4150   16.7550 C   0  0  0  0  0  0  0  0  0  0  0  0
    1.9770    6.5830   17.0420 C   0  0  0  0  0  0  0  0  0  0  0  0
    1.2410    7.0870   18.0680 C   0  0  0  0  0  0  0  0  0  0  0  0
    1.7750    7.6620   19.3660 C   0  0  0  0  0  0  0  0  0  0  0  0
   -0.2490    7.0020   17.8520 C   0  0  0  0  0  0  0  0  0  0  0  0
   -1.0270    8.3150   17.7900 C   0  0  0  0  0  0  0  0  0  0  0  0
   -0.2720    9.4890   18.3490 C   0  0  0  0  0  0  0  0  0  0  0  0
   -0.5900   10.7920   18.1830 C   0  0  1  0  0  0  0  0  0  0  0  0
   -1.8030   11.2970   17.4420 C   0  0  0  0  0  0  0  0  0  0  0  0
    0.3060   11.8080   18.8460 C   0  0  0  0  0  0  0  0  0  0  0  0
    1.5450   12.2230   18.0440 C   0  0  1  0  0  0  0  0  0  0  0  0
    2.3560   12.9700   18.9420 O   0  0  0  0  0  0  0  0  0  0  0  0
    2.4360   11.1060   17.5410 C   0  0  0  0  0  0  0  0  0  0  0  0
    3.6190   10.6820   18.0670 C   0  0  0  0  0  0  0  0  0  0  0  0
    4.3110    9.5810   17.3400 C   0  0  0  0  0  0  0  0  0  0  0  0
    4.3280   11.1790   19.3180 C   0  0  0  0  0  0  0  0  0  0  0  0
  2  1  1  0
  3  2  1  0
  4  3  1  0
  5  4  1  0
  6  5  1  0
  7  6  1  0
  8  7  1  0
  8  3  1  0
  9  8  1  0
 10  9  1  0
 11 10  1  0
 12 10  1  0
 12  2  1  0
 13 12  1  0
 14 13  1  0
 15 14  1  0
 16 15  1  0
 17 15  1  0
 18 17  1  0
 19 18  1  0
 20 19  1  0
 20 21  1  1
 22 20  1  0
 23 22  1  0
 23 24  1  1
 25 23  1  0
 26 25  1  0
 27 26  1  0
 28 26  1  0
M  END
$$$$
