
     RDKit          3D

 21 24  0  0  0  0  0  0  0  0999 V2000
    8.3530   14.9140   23.8560 C   0  0  0  0  0  0  0  0  0  0  0  0
    8.0370   17.0170   22.5460 N   0  0  0  0  0  0  0  0  0  0  0  0
    7.9470   13.8400   24.1720 O   0  0  0  0  0  0  0  0  0  0  0  0
    7.5010   16.0960   23.5090 C   0  0  1  0  0  0  0  0  0  0  0  0
    6.1060   15.6060   22.9630 C   0  0  0  0  0  0  0  0  0  0  0  0
    5.3250   16.8770   22.6470 C   0  0  0  0  0  0  0  0  0  0  0  0
    9.8970   18.0600   21.7580 O   0  0  0  0  0  0  0  0  0  0  0  0
   12.1090   14.7710   23.6980 C   0  0  0  0  0  0  0  0  0  0  0  0
   11.6440   15.9900   22.8060 C   0  0  0  0  0  0  0  0  0  0  0  0
   10.9500   14.1420   24.1400 C   0  0  0  0  0  0  0  0  0  0  0  0
    9.4270   17.2550   22.5060 C   0  0  0  0  0  0  0  0  0  0  0  0
   10.2810   16.3880   23.4950 C   0  0  1  0  0  0  0  0  0  0  0  0
    9.7700   15.1670   23.8240 N   0  0  0  0  0  0  0  0  0  0  0  0
    5.0810   17.1610   21.3180 C   0  0  0  0  0  0  0  0  0  0  0  0
    4.8190   17.8900   23.4190 C   0  0  0  0  0  0  0  0  0  0  0  0
    4.4140   18.3440   21.2770 N   0  0  0  0  0  0  0  0  0  0  0  0
    4.2420   18.8010   22.5650 C   0  0  0  0  0  0  0  0  0  0  0  0
    4.8110   18.1010   24.8080 C   0  0  0  0  0  0  0  0  0  0  0  0
    3.6340   20.1810   24.4500 C   0  0  0  0  0  0  0  0  0  0  0  0
    3.6350   19.9790   23.0720 C   0  0  0  0  0  0  0  0  0  0  0  0
    4.2020   19.2510   25.3210 C   0  0  0  0  0  0  0  0  0  0  0  0
  3  1  1  0
  4  1  1  0
  4  2  1  0
  4  5  1  6
  6  5  1  0
  9  8  1  0
 10  8  1  0
 11  7  1  0
 11  2  1  0
 12 11  1  0
 12  9  1  6
 13  1  1  0
 13 12  1  0
 13 10  1  0
 14  6  1  0
 15  6  1  0
 16 14  1  0
 17 16  1  0
 17 15  1  0
 18 15  1  0
 20 19  1  0
 20 17  1  0
 21 19  1  0
 21 18  1  0
M  END
$$$$
