
     RDKit          3D

 73 77  0  0  0  0  0  0  0  0999 V2000
   -5.7980   28.5500   -5.2270 C   0  0  1  0  0  0  0  0  0  0  0  0
   -4.6090   26.9320  -11.1060 C   0  0  1  0  0  0  0  0  0  0  0  0
   -4.2440   25.5450   -3.4080 C   0  0  1  0  0  0  0  0  0  0  0  0
   -3.5490   26.0100   -1.0030 C   0  0  0  0  0  0  0  0  0  0  0  0
   -3.5070   26.2720   -2.3200 C   0  0  0  0  0  0  0  0  0  0  0  0
   -4.4390   26.2020    2.9420 C   0  0  1  0  0  0  0  0  0  0  0  0
   -6.6260   27.7440   -1.7490 C   0  0  0  0  0  0  0  0  0  0  0  0
   -4.9490   26.4110   -4.4740 C   0  0  1  0  0  0  0  0  0  0  0  0
   -6.6490   27.7040   -3.0650 C   0  0  0  0  0  0  0  0  0  0  0  0
   -4.3790   24.9780   -0.3400 C   0  0  1  0  0  0  0  0  0  0  0  0
   -3.4840   25.3680    2.0790 C   0  0  1  0  0  0  0  0  0  0  0  0
   -5.9490   25.9600    2.7850 C   0  0  1  0  0  0  0  0  0  0  0  0
   -7.7750   27.6600   -0.8680 C   0  0  0  0  0  0  0  0  0  0  0  0
   -8.7980   27.2620    1.4310 C   0  0  1  0  0  0  0  0  0  0  0  0
   -7.6840   27.6040    0.4730 C   0  0  0  0  0  0  0  0  0  0  0  0
   -6.7710   27.2490    2.6450 C   0  0  1  0  0  0  0  0  0  0  0  0
   -4.2700   24.6720    1.0310 N   0  0  0  0  0  0  0  0  0  0  0  0
   -5.4140   26.7710   -9.8070 C   0  0  2  0  0  0  0  0  0  0  0  0
   -5.4450   27.7910   -3.9470 C   0  0  2  0  0  0  0  0  0  0  0  0
   -3.9230   25.6540  -11.5470 C   0  0  2  0  0  0  0  0  0  0  0  0
   -6.9660   28.6160  -10.7930 C   0  0  1  0  0  0  0  0  0  0  0  0
   -6.6020   27.7270   -9.6070 C   0  0  2  0  0  0  0  0  0  0  0  0
   -6.2840   28.5340   -8.3390 C   0  0  2  0  0  0  0  0  0  0  0  0
   -6.4720   27.8130    1.2440 C   0  0  0  0  0  0  0  0  0  0  0  0
   -5.5720   27.5030   -7.5160 C   0  0  1  0  0  0  0  0  0  0  0  0
   -4.5420   27.0170   -8.5410 C   0  0  1  0  0  0  0  0  0  0  0  0
   -4.8310   28.0310   -6.2760 C   0  0  2  0  0  0  0  0  0  0  0  0
   -4.0210   26.8940   -5.6150 C   0  0  2  0  0  0  0  0  0  0  0  0
   -3.4790   25.9110   -6.6220 C   0  0  0  0  0  0  0  0  0  0  0  0
   -3.6770   25.9500   -7.9380 C   0  0  0  0  0  0  0  0  0  0  0  0
   -8.2050   27.0220    2.6190 N   0  0  0  0  0  0  0  0  0  0  0  0
   -5.3170   24.4040   -0.8930 O   0  0  0  0  0  0  0  0  0  0  0  0
   -8.9850   27.6260   -1.4660 O   0  0  0  0  0  0  0  0  0  0  0  0
  -10.0220   27.2770    1.2270 O   0  0  0  0  0  0  0  0  0  0  0  0
   -5.4100   28.2840    0.9030 O   0  0  0  0  0  0  0  0  0  0  0  0
   -6.8360   28.3780   -5.5090 H   0  0  0  0  0  0  0  0  0  0  0  0
   -5.7030   29.6250   -5.0810 H   0  0  0  0  0  0  0  0  0  0  0  0
   -5.2590   27.2800  -11.9080 H   0  0  0  0  0  0  0  0  0  0  0  0
   -3.8600   27.7130  -10.9870 H   0  0  0  0  0  0  0  0  0  0  0  0
   -3.5450   24.8700   -3.9000 H   0  0  0  0  0  0  0  0  0  0  0  0
   -4.9740   24.8850   -2.9420 H   0  0  0  0  0  0  0  0  0  0  0  0
   -2.9380   26.5730   -0.2990 H   0  0  0  0  0  0  0  0  0  0  0  0
   -2.8820   27.0910   -2.6720 H   0  0  0  0  0  0  0  0  0  0  0  0
   -4.1820   26.0620    3.9910 H   0  0  0  0  0  0  0  0  0  0  0  0
   -4.2460   27.2590    2.7620 H   0  0  0  0  0  0  0  0  0  0  0  0
   -5.6830   27.8480   -1.2140 H   0  0  0  0  0  0  0  0  0  0  0  0
   -5.7940   25.8670   -4.8920 H   0  0  0  0  0  0  0  0  0  0  0  0
   -7.5910   27.6010   -3.6020 H   0  0  0  0  0  0  0  0  0  0  0  0
   -2.7080   25.9830    1.6260 H   0  0  0  0  0  0  0  0  0  0  0  0
   -2.9260   24.6480    2.6760 H   0  0  0  0  0  0  0  0  0  0  0  0
   -6.1340   25.3170    1.9260 H   0  0  0  0  0  0  0  0  0  0  0  0
   -6.3220   25.3830    3.6300 H   0  0  0  0  0  0  0  0  0  0  0  0
   -6.5560   27.9420    3.4560 H   0  0  0  0  0  0  0  0  0  0  0  0
   -4.8010   23.8670    1.3470 H   0  0  0  0  0  0  0  0  0  0  0  0
   -5.8260   25.7630   -9.7870 H   0  0  0  0  0  0  0  0  0  0  0  0
   -4.6310   28.2630   -3.3980 H   0  0  0  0  0  0  0  0  0  0  0  0
   -4.6430   24.8670  -11.7640 H   0  0  0  0  0  0  0  0  0  0  0  0
   -3.2510   25.2750  -10.7800 H   0  0  0  0  0  0  0  0  0  0  0  0
   -3.3310   25.8080  -12.4480 H   0  0  0  0  0  0  0  0  0  0  0  0
   -7.7630   29.3130  -10.5370 H   0  0  0  0  0  0  0  0  0  0  0  0
   -6.1120   29.2040  -11.1260 H   0  0  0  0  0  0  0  0  0  0  0  0
   -7.3080   28.0260  -11.6410 H   0  0  0  0  0  0  0  0  0  0  0  0
   -7.4640   27.0930   -9.4020 H   0  0  0  0  0  0  0  0  0  0  0  0
   -7.1740   28.9300   -7.8520 H   0  0  0  0  0  0  0  0  0  0  0  0
   -5.6780   29.4170   -8.5360 H   0  0  0  0  0  0  0  0  0  0  0  0
   -6.2720   26.7270   -7.2080 H   0  0  0  0  0  0  0  0  0  0  0  0
   -3.8440   27.7950   -8.8470 H   0  0  0  0  0  0  0  0  0  0  0  0
   -4.1110   28.8160   -6.5040 H   0  0  0  0  0  0  0  0  0  0  0  0
   -3.1180   27.3000   -5.1610 H   0  0  0  0  0  0  0  0  0  0  0  0
   -2.8790   25.1230   -6.1710 H   0  0  0  0  0  0  0  0  0  0  0  0
   -3.2250   25.2330   -8.6200 H   0  0  0  0  0  0  0  0  0  0  0  0
   -8.7010   26.7050    3.4460 H   0  0  0  0  0  0  0  0  0  0  0  0
   -8.9200   27.6670   -2.4560 H   0  0  0  0  0  0  0  0  0  0  0  0
  5  4  1  0
  5  3  1  0
  8  3  1  0
  9  7  1  0
 10  4  1  0
 11  6  1  0
 12  6  1  0
 13  7  1  0
 15 14  1  0
 15 13  1  0
 16 12  1  0
 17 11  1  0
 17 10  1  0
 18  2  1  0
 19  9  1  0
 19  1  1  0
 19  8  1  0
 20  2  1  0
 22 21  1  0
 22 18  1  0
 23 22  1  0
 24 16  1  0
 24 15  1  0
 25 23  1  0
 26 25  1  0
 26 18  1  0
 27 25  1  0
 27  1  1  0
 28  8  1  0
 28 27  1  0
 29 28  1  0
 30 29  1  0
 30 26  1  0
 31 16  1  0
 31 14  1  0
 10 32  1  1
 33 13  1  0
 14 34  1  1
 35 24  1  0
  1 36  1  6
 37  1  1  0
  2 38  1  6
 39  2  1  0
  3 40  1  6
 41  3  1  0
 42  4  1  0
 43  5  1  0
  6 44  1  1
 45  6  1  0
 46  7  1  0
  8 47  1  6
 48  9  1  0
 11 49  1  6
 50 11  1  0
 12 51  1  6
 52 12  1  0
 16 53  1  1
 54 17  1  0
 18 55  1  1
 19 56  1  1
 20 57  1  6
 58 20  1  0
 59 20  1  0
 21 60  1  1
 61 21  1  0
 62 21  1  0
 22 63  1  1
 23 64  1  1
 65 23  1  0
 25 66  1  1
 26 67  1  6
 27 68  1  6
 28 69  1  1
 70 29  1  0
 71 30  1  0
 72 31  1  0
 73 33  1  0
M  END
$$$$
