
     RDKit          3D

  8  8  0  0  0  0  0  0  0  0999 V2000
    0.7970   46.8870    6.8290 C   0  0  0  0  0  0  0  0  0  0  0  0
   -0.4670   46.3750    7.2830 O   0  0  0  0  0  0  0  0  0  0  0  0
   -0.1320   48.6170    5.2510 C   0  0  0  0  0  0  0  0  0  0  0  0
   -0.1550   49.3370    4.0630 C   0  0  0  0  0  0  0  0  0  0  0  0
    0.7750   49.0850    3.1010 C   0  0  0  0  0  0  0  0  0  0  0  0
    1.7070   48.1160    3.3460 C   0  0  0  0  0  0  0  0  0  0  0  0
    1.7130   47.3840    4.5210 C   0  0  0  0  0  0  0  0  0  0  0  0
    0.7850   47.6410    5.5100 C   0  0  0  0  0  0  0  0  0  0  0  0
  2  1  1  0
  4  3  1  0
  5  4  1  0
  6  5  1  0
  7  6  1  0
  8  7  1  0
  8  3  1  0
  8  1  1  0
M  END
$$$$
