
     RDKit          3D

 36 39  0  0  0  0  0  0  0  0999 V2000
    3.8210   27.4050    7.2720 C   0  0  2  0  0  0  0  0  0  0  0  0
    5.1090   23.8580   11.7380 C   0  0  0  0  0  0  0  0  0  0  0  0
    6.7590   27.2510   11.0680 C   0  0  0  0  0  0  0  0  0  0  0  0
    6.0690   28.6470    7.5090 C   0  0  1  0  0  0  0  0  0  0  0  0
    6.5440   28.3050    6.1020 C   0  0  0  0  0  0  0  0  0  0  0  0
    5.9790   28.8240    4.9780 C   0  0  0  0  0  0  0  0  0  0  0  0
    3.9470   26.7930    5.8790 C   0  0  0  0  0  0  0  0  0  0  0  0
    3.1870   27.3360    4.7090 C   0  0  0  0  0  0  0  0  0  0  0  0
    6.4970   28.4630    3.6080 C   0  0  0  0  0  0  0  0  0  0  0  0
    5.8790   28.6910    2.4650 C   0  0  0  0  0  0  0  0  0  0  0  0
    3.3720   26.7140    3.5500 C   0  0  0  0  0  0  0  0  0  0  0  0
    5.1540   27.5230    8.0220 C   0  0  1  0  0  0  0  0  0  0  0  0
    2.5460   26.8050    2.4840 C   0  0  0  0  0  0  0  0  0  0  0  0
    6.3790   28.3480    1.1450 C   0  0  0  0  0  0  0  0  0  0  0  0
    2.7010   28.1490   -1.8820 C   0  0  0  0  0  0  0  0  0  0  0  0
    2.1670   25.8020   -1.1070 C   0  0  0  0  0  0  0  0  0  0  0  0
    3.0500   26.6600   -1.9970 C   0  0  0  0  0  0  0  0  0  0  0  0
    6.1400   28.1020   -1.3520 C   0  0  0  0  0  0  0  0  0  0  0  0
    5.6510   28.4900   -0.0160 C   0  0  2  0  0  0  0  0  0  0  0  0
    2.9600   26.5340    8.1920 C   0  0  0  0  0  0  0  0  0  0  0  0
    3.9620   28.9790   -1.6540 C   0  0  1  0  0  0  0  0  0  0  0  0
    4.3400   29.0880   -0.1730 C   0  0  0  0  0  0  0  0  0  0  0  0
    2.9350   26.1010    1.2080 C   0  0  0  0  0  0  0  0  0  0  0  0
    3.2440   27.1620    9.5670 C   0  0  2  0  0  0  0  0  0  0  0  0
    4.7340   27.5890    9.5190 C   0  0  1  0  0  0  0  0  0  0  0  0
    3.1010   26.1450   10.7180 C   0  0  0  0  0  0  0  0  0  0  0  0
    4.4090   26.3260   11.4910 C   0  0  2  0  0  0  0  0  0  0  0  0
    5.5040   26.6340   10.4540 C   0  0  2  0  0  0  0  0  0  0  0  0
    4.7860   25.1760   12.4410 C   0  0  0  0  0  0  0  0  0  0  0  0
    2.0400   26.3490    0.2400 N   0  0  0  0  0  0  0  0  0  0  0  0
    5.1600   28.3950   -2.2270 N   0  0  0  0  0  0  0  0  0  0  0  0
    7.6430   27.9010    1.0710 O   0  0  0  0  0  0  0  0  0  0  0  0
    7.2220   27.5860   -1.6200 O   0  0  0  0  0  0  0  0  0  0  0  0
    3.6350   29.6150    0.6730 O   0  0  0  0  0  0  0  0  0  0  0  0
    3.9190   25.3750    1.0270 O   0  0  0  0  0  0  0  0  0  0  0  0
    7.2200   28.6920    8.3570 O   0  0  0  0  0  0  0  0  0  0  0  0
  5  4  1  0
  6  5  1  0
  1  7  1  6
  8  7  1  0
  9  6  1  0
 10  9  1  0
 11  8  1  0
 12  1  1  0
 12  4  1  6
 13 11  1  0
 14 10  1  0
 17 16  1  0
 17 15  1  0
 19 18  1  6
 19 14  1  0
 20  1  1  0
 21 15  1  1
 22 21  1  0
 22 19  1  0
 23 13  1  0
 24 20  1  6
 25 24  1  6
 25 12  1  0
 26 24  1  0
 27 26  1  0
 28 27  1  0
 28 25  1  0
 28  3  1  1
 27 29  1  6
 29  2  1  0
 30 23  1  0
 30 16  1  0
 31 21  1  0
 31 18  1  0
 32 14  1  0
 33 18  1  0
 34 22  1  0
 35 23  1  0
  4 36  1  1
M  END
$$$$
