
     RDKit          3D

 32 35  0  0  0  0  0  0  0  0999 V2000
   32.3070   96.0140    9.0450 C   0  0  0  0  0  0  0  0  0  0  0  0
   33.4600   96.2350   10.0210 C   0  0  1  0  0  0  0  0  0  0  0  0
   33.0110   96.0100   11.4540 C   0  0  0  0  0  0  0  0  0  0  0  0
   34.6270   95.3390    9.6780 C   0  0  0  0  0  0  0  0  0  0  0  0
   35.3750   95.8820    8.4600 C   0  0  0  0  0  0  0  0  0  0  0  0
   36.5840   95.0250    8.1700 C   0  0  0  0  0  0  0  0  0  0  0  0
   37.3620   95.4720    6.9140 C   0  0  1  0  0  0  0  0  0  0  0  0
   38.0730   96.8030    7.2170 C   0  0  0  0  0  0  0  0  0  0  0  0
   38.2920   94.3110    6.4510 C   0  0  1  0  0  0  0  0  0  0  0  0
   37.4550   93.1160    5.9510 C   0  0  0  0  0  0  0  0  0  0  0  0
   39.2560   94.5940    5.2340 C   0  0  2  0  0  0  0  0  0  0  0  0
   40.5710   95.3440    5.4920 C   0  0  0  0  0  0  0  0  0  0  0  0
   38.4400   95.2720    4.1020 C   0  0  0  0  0  0  0  0  0  0  0  0
   39.5870   93.1410    4.8410 C   0  0  1  0  0  0  0  0  0  0  0  0
   38.2160   92.4840    4.7590 C   0  0  0  0  0  0  0  0  0  0  0  0
   40.5080   92.9940    3.6310 C   0  0  2  0  0  0  0  0  0  0  0  0
   40.8320   91.5170    3.4010 C   0  0  0  0  0  0  0  0  0  0  0  0
   41.7930   93.7390    3.9340 C   0  0  2  0  0  0  0  0  0  0  0  0
   41.5490   95.2050    4.3090 C   0  0  0  0  0  0  0  0  0  0  0  0
   42.7940   93.6040    2.7560 C   0  0  2  0  0  0  0  0  0  0  0  0
   42.3630   94.5490    1.6170 C   0  0  0  0  0  0  0  0  0  0  0  0
   42.8850   92.2420    2.1890 C   0  0  0  0  0  0  0  0  0  0  0  0
   43.9670   91.8610    1.2470 C   0  0  0  0  0  0  0  0  0  0  0  0
   41.9600   91.2740    2.4920 C   0  0  0  0  0  0  0  0  0  0  0  0
   44.1640   94.0480    3.2340 C   0  0  0  0  0  0  0  0  0  0  0  0
   45.2560   93.7930    2.1920 C   0  0  0  0  0  0  0  0  0  0  0  0
   45.2900   92.3180    1.8230 C   0  0  2  0  0  0  0  0  0  0  0  0
   46.3180   92.1100    0.8500 O   0  0  0  0  0  0  0  0  0  0  0  0
   47.6290   91.1960    1.2930 S   0  0  1  0  0  0  0  0  0  0  0  0
   48.3980   91.1380    0.1340 O   0  0  0  0  0  0  0  0  0  0  0  0
   48.1570   91.9250    2.3870 O   0  0  0  0  0  0  0  0  0  0  0  0
   47.0470   89.8920    1.6280 O   0  0  0  0  0  0  0  0  0  0  0  0
  2  1  1  6
  3  2  1  0
  4  2  1  0
  5  4  1  0
  6  5  1  0
  7  6  1  0
  7  8  1  1
  9  7  1  0
  9 10  1  6
 11  9  1  0
 12 11  1  0
 11 13  1  6
 14 11  1  0
 15 10  1  0
 14 15  1  6
 16 14  1  0
 16 17  1  1
 18 16  1  0
 18 19  1  6
 19 12  1  0
 20 18  1  0
 20 21  1  6
 22 20  1  0
 23 22  1  0
 24 22  1  0
 24 17  1  0
 25 20  1  0
 26 25  1  0
 27 23  1  0
 27 26  1  0
 27 28  1  6
 29 28  1  0
 29 30  1  6
 31 29  1  0
 32 29  1  0
M  END
$$$$
