
     RDKit          3D

 51 57  0  0  0  0  0  0  0  0999 V2000
  -10.0560   13.4060   98.3280 C   0  0  0  0  0  0  0  0  0  0  0  0
   -9.6920   16.8210  101.9660 C   0  0  0  0  0  0  0  0  0  0  0  0
   -6.6800   15.2340   99.9000 O   0  0  0  0  0  0  0  0  0  0  0  0
   -9.8860   14.5620  102.7170 O   0  0  0  0  0  0  0  0  0  0  0  0
    9.6960   12.9200   93.9310 F   0  0  0  0  0  0  0  0  0  0  0  0
   13.7770   11.7080   92.0130 F   0  0  0  0  0  0  0  0  0  0  0  0
   11.7470   12.3750   92.9810 C   0  0  0  0  0  0  0  0  0  0  0  0
    4.4500    9.5330   98.4740 C   0  0  0  0  0  0  0  0  0  0  0  0
    4.8050   11.8620   98.0590 C   0  0  0  0  0  0  0  0  0  0  0  0
    3.2790    9.8350   99.1490 C   0  0  0  0  0  0  0  0  0  0  0  0
    3.6300   12.1570   98.7270 C   0  0  0  0  0  0  0  0  0  0  0  0
   -3.2120   11.5040  101.3690 C   0  0  0  0  0  0  0  0  0  0  0  0
   -2.9030   13.5740  100.2090 C   0  0  0  0  0  0  0  0  0  0  0  0
   -4.5760   11.7360  101.4180 C   0  0  0  0  0  0  0  0  0  0  0  0
   -4.2650   13.8080  100.2630 C   0  0  0  0  0  0  0  0  0  0  0  0
   12.8150   11.5160   92.9540 C   0  0  0  0  0  0  0  0  0  0  0  0
   12.7780   13.6370   97.4100 C   0  0  0  0  0  0  0  0  0  0  0  0
   10.8320   11.0730   94.8190 C   0  0  1  0  0  0  0  0  0  0  0  0
   11.9310   11.8740   98.0920 C   0  0  0  0  0  0  0  0  0  0  0  0
   -7.4780   12.2200  101.3390 C   0  0  0  0  0  0  0  0  0  0  0  0
  -10.6430   14.1980   99.4670 C   0  0  0  0  0  0  0  0  0  0  0  0
    8.4190   10.4580   95.3890 C   0  0  0  0  0  0  0  0  0  0  0  0
    0.6360   10.4250   99.9930 C   0  0  0  0  0  0  0  0  0  0  0  0
    1.1490   12.8160   99.7150 C   0  0  0  0  0  0  0  0  0  0  0  0
   -0.4800   10.8100  100.9420 C   0  0  0  0  0  0  0  0  0  0  0  0
    0.0150   13.1400  100.6660 C   0  0  0  0  0  0  0  0  0  0  0  0
    6.6760    9.0920   96.7080 C   0  0  0  0  0  0  0  0  0  0  0  0
    9.7330   12.0530   96.8740 C   0  0  0  0  0  0  0  0  0  0  0  0
   13.0410   12.5600   98.1890 N   0  0  0  0  0  0  0  0  0  0  0  0
   11.5910   13.6490   96.8480 N   0  0  0  0  0  0  0  0  0  0  0  0
   -8.7110   12.7610  101.2280 N   0  0  0  0  0  0  0  0  0  0  0  0
    6.3240   10.4030   97.1390 O   0  0  0  0  0  0  0  0  0  0  0  0
   10.2740    9.7060   96.6540 O   0  0  0  0  0  0  0  0  0  0  0  0
   10.7750   12.1170   93.9090 C   0  0  0  0  0  0  0  0  0  0  0  0
   11.9440   10.2440   94.7410 C   0  0  0  0  0  0  0  0  0  0  0  0
    5.2110   10.5500   97.9280 C   0  0  2  0  0  0  0  0  0  0  0  0
    2.8540   11.1530   99.2770 C   0  0  0  0  0  0  0  0  0  0  0  0
   -2.3620   12.4110  100.7430 C   0  0  2  0  0  0  0  0  0  0  0  0
   -5.1110   12.8860  100.8580 C   0  0  0  0  0  0  0  0  0  0  0  0
   12.9450   10.4580   93.8090 C   0  0  0  0  0  0  0  0  0  0  0  0
   -7.1750   14.2410  100.4010 C   0  0  0  0  0  0  0  0  0  0  0  0
  -10.1960   15.4330  101.6360 C   0  0  2  0  0  0  0  0  0  0  0  0
   -9.5960   14.8870  100.3460 C   0  0  1  0  0  0  0  0  0  0  0  0
    1.6710   11.4630   99.9430 N   0  0  0  0  0  0  0  0  0  0  0  0
   -1.0200   12.1120  100.5550 N   0  0  0  0  0  0  0  0  0  0  0  0
   11.0540   12.4900   97.3010 N   0  0  0  0  0  0  0  0  0  0  0  0
   -6.5400   13.0940  100.8540 N   0  0  0  0  0  0  0  0  0  0  0  0
   -8.4840   13.9810  100.6510 N   0  0  0  0  0  0  0  0  0  0  0  0
    9.8010   10.8550   95.9090 C   0  0  2  0  0  0  0  0  0  0  0  0
    9.1440    9.0570   97.1850 C   0  0  0  0  0  0  0  0  0  0  0  0
    8.0660    9.1540   96.1190 C   0  0  2  0  0  0  0  0  0  0  0  0
 10  8  1  0
 11  9  1  0
 14 12  1  0
 15 13  1  0
 16  6  1  0
 16  7  1  0
 21  1  1  0
 25 23  1  0
 26 24  1  0
 29 19  1  0
 29 17  1  0
 30 17  1  0
 31 20  1  0
 32 27  1  0
 34 18  1  0
 34  5  1  0
 34  7  1  0
 18 35  1  1
 36  8  1  0
 36  9  1  0
 36 32  1  6
 37 10  1  0
 37 11  1  0
 38 13  1  0
 38 12  1  0
 39 15  1  0
 39 14  1  0
 40 35  1  0
 40 16  1  0
 41  3  1  0
 42  4  1  0
 42  2  1  1
 43 42  1  0
 43 21  1  1
 44 23  1  0
 44 37  1  0
 44 24  1  0
 45 25  1  0
 38 45  1  6
 45 26  1  0
 46 28  1  0
 46 30  1  0
 46 19  1  0
 47 41  1  0
 47 20  1  0
 47 39  1  0
 48 43  1  0
 48 41  1  0
 48 31  1  0
 49 33  1  0
 49 22  1  0
 49 28  1  1
 49 18  1  0
 50 33  1  0
 51 50  1  0
 51 27  1  1
 51 22  1  0
M  END
$$$$
