
     RDKit          3D

 21 22  0  0  0  0  0  0  0  0999 V2000
   11.8560    8.6500   92.5890 C   0  0  0  0  0  0  0  0  0  0  0  0
   10.8120    8.8780   93.4770 C   0  0  0  0  0  0  0  0  0  0  0  0
   10.6240   10.1260   94.0610 C   0  0  1  0  0  0  0  0  0  0  0  0
   11.5330   11.1300   93.7780 C   0  0  0  0  0  0  0  0  0  0  0  0
   12.5800   10.9250   92.8930 C   0  0  0  0  0  0  0  0  0  0  0  0
   12.7210    9.6850   92.3190 C   0  0  1  0  0  0  0  0  0  0  0  0
   14.1130    9.3850   91.3160 Cl  0  0  0  0  0  0  0  0  0  0  0  0
    9.3760   10.4420   94.8470 C   0  0  0  0  0  0  0  0  0  0  0  0
    8.9180    9.2970   95.7340 C   0  0  0  0  0  0  0  0  0  0  0  0
    7.8940    9.6620   96.8110 C   0  0  2  0  0  0  0  0  0  0  0  0
    7.9880   11.0270   97.4190 C   0  0  0  0  0  0  0  0  0  0  0  0
    9.3370   11.3970   97.7950 N   0  0  0  0  0  0  0  0  0  0  0  0
   10.1500   10.8160   98.6850 C   0  0  0  0  0  0  0  0  0  0  0  0
   11.3210   11.4010   98.6920 N   0  0  0  0  0  0  0  0  0  0  0  0
   11.1710   12.3730   97.7620 C   0  0  0  0  0  0  0  0  0  0  0  0
    9.9900   12.4140   97.2010 N   0  0  0  0  0  0  0  0  0  0  0  0
    8.2350    8.7070   97.8230 O   0  0  0  0  0  0  0  0  0  0  0  0
    6.4390    9.4230   96.4650 C   0  0  1  0  0  0  0  0  0  0  0  0
    5.5930    9.3840   97.7460 C   0  0  0  0  0  0  0  0  0  0  0  0
    5.8990   10.5380   95.5670 C   0  0  0  0  0  0  0  0  0  0  0  0
    6.2640    8.1030   95.7060 C   0  0  0  0  0  0  0  0  0  0  0  0
  2  1  1  0
  3  2  1  0
  4  3  1  0
  5  4  1  0
  6  1  1  0
  6  5  1  0
  6  7  1  1
  3  8  1  6
  9  8  1  0
 10  9  1  0
 11 10  1  0
 12 11  1  0
 13 12  1  0
 14 13  1  0
 15 14  1  0
 16 12  1  0
 16 15  1  0
 10 17  1  1
 18 10  1  0
 18 19  1  1
 20 18  1  0
 21 18  1  0
M  END
$$$$
