
     RDKit          3D

 22 24  0  0  0  0  0  0  0  0999 V2000
   23.6020    9.8400   16.9960 O   0  0  0  0  0  0  0  0  0  0  0  0
   23.2430   10.8970   16.0970 C   0  0  1  0  0  0  0  0  0  0  0  0
   21.8320   10.5870   15.5500 C   0  0  0  0  0  0  0  0  0  0  0  0
   23.2690   12.2000   16.9260 C   0  0  0  0  0  0  0  0  0  0  0  0
   24.2700   11.0010   14.9700 C   0  0  0  0  0  0  0  0  0  0  0  0
   20.7930   10.7040   16.5620 N   0  0  0  0  0  0  0  0  0  0  0  0
   20.3200    9.7840   17.3950 C   0  0  0  0  0  0  0  0  0  0  0  0
   20.1260   11.8700   16.7510 N   0  0  0  0  0  0  0  0  0  0  0  0
   19.3560   10.2730   18.1390 N   0  0  0  0  0  0  0  0  0  0  0  0
   19.2810   11.5480   17.7040 C   0  0  0  0  0  0  0  0  0  0  0  0
   24.6180   12.5810   17.3080 N   0  0  0  0  0  0  0  0  0  0  0  0
   25.4700   11.9650   18.1190 C   0  0  0  0  0  0  0  0  0  0  0  0
   25.2110   13.6810   16.7850 N   0  0  0  0  0  0  0  0  0  0  0  0
   26.6200   12.5930   18.1620 N   0  0  0  0  0  0  0  0  0  0  0  0
   26.4050   13.6330   17.3290 C   0  0  0  0  0  0  0  0  0  0  0  0
   25.3560   10.1360   14.9270 C   0  0  0  0  0  0  0  0  0  0  0  0
   24.2080   11.9630   13.9720 C   0  0  0  0  0  0  0  0  0  0  0  0
   26.3240   10.2330   13.9440 C   0  0  0  0  0  0  0  0  0  0  0  0
   26.1880   11.2100   12.9970 C   0  0  0  0  0  0  0  0  0  0  0  0
   27.1230   11.2980   12.0120 F   0  0  0  0  0  0  0  0  0  0  0  0
   25.1440   12.0970   12.9820 C   0  0  0  0  0  0  0  0  0  0  0  0
   23.1610   12.8190   13.9700 F   0  0  0  0  0  0  0  0  0  0  0  0
  2  1  1  1
  3  2  1  0
  4  2  1  0
  5  2  1  0
  6  3  1  0
  7  6  1  0
  8  6  1  0
  9  7  1  0
 10  9  1  0
 10  8  1  0
 11  4  1  0
 12 11  1  0
 13 11  1  0
 14 12  1  0
 15 14  1  0
 15 13  1  0
 16  5  1  0
 17  5  1  0
 18 16  1  0
 19 18  1  0
 20 19  1  0
 21 19  1  0
 21 17  1  0
 22 17  1  0
M  END
$$$$
