
     RDKit          3D

 37 40  0  0  0  0  0  0  0  0999 V2000
   11.0540   11.4410   19.0390 F   0  0  0  0  0  0  0  0  0  0  0  0
   10.9640   11.9550   20.2850 C   0  0  2  0  0  0  0  0  0  0  0  0
   10.2670   11.0690   21.0160 F   0  0  0  0  0  0  0  0  0  0  0  0
   10.2280   13.0710   20.2200 F   0  0  0  0  0  0  0  0  0  0  0  0
   12.2960   12.2240   20.8610 C   0  0  0  0  0  0  0  0  0  0  0  0
   13.0360   11.0020   20.7710 O   0  0  0  0  0  0  0  0  0  0  0  0
   14.2470   11.0280   20.1290 C   0  0  0  0  0  0  0  0  0  0  0  0
   14.9340    9.8310   20.0670 C   0  0  0  0  0  0  0  0  0  0  0  0
   16.1550    9.7740   19.4280 C   0  0  0  0  0  0  0  0  0  0  0  0
   14.7870   12.1690   19.5570 C   0  0  0  0  0  0  0  0  0  0  0  0
   16.0070   12.1000   18.9140 C   0  0  0  0  0  0  0  0  0  0  0  0
   16.7130   10.9010   18.8320 C   0  0  0  0  0  0  0  0  0  0  0  0
   18.0020   10.8240   18.1100 C   0  0  2  0  0  0  0  0  0  0  0  0
   18.6790   11.9630   17.7120 C   0  0  0  0  0  0  0  0  0  0  0  0
   19.7880   11.9520   16.9700 N   0  0  0  0  0  0  0  0  0  0  0  0
   18.5500    9.6080   17.7210 C   0  0  0  0  0  0  0  0  0  0  0  0
   19.7000    9.5610   16.9590 C   0  0  0  0  0  0  0  0  0  0  0  0
   20.2830   10.7690   16.5930 C   0  0  1  0  0  0  0  0  0  0  0  0
   21.4910   10.8800   15.6750 C   0  0  2  0  0  0  0  0  0  0  0  0
   21.2450   11.8480   14.7610 F   0  0  0  0  0  0  0  0  0  0  0  0
   21.6270    9.7380   14.9800 F   0  0  0  0  0  0  0  0  0  0  0  0
   22.9150   11.1350   16.2590 C   0  0  1  0  0  0  0  0  0  0  0  0
   22.9520   12.4400   17.0780 C   0  0  0  0  0  0  0  0  0  0  0  0
   24.3060   12.7940   17.4630 N   0  0  0  0  0  0  0  0  0  0  0  0
   25.0680   11.9650   18.2060 N   0  0  0  0  0  0  0  0  0  0  0  0
   26.2190   12.5510   18.3330 N   0  0  0  0  0  0  0  0  0  0  0  0
   26.2210   13.7510   17.6880 N   0  0  0  0  0  0  0  0  0  0  0  0
   25.0300   13.8640   17.1710 C   0  0  0  0  0  0  0  0  0  0  0  0
   23.1390   10.0610   17.1810 O   0  0  0  0  0  0  0  0  0  0  0  0
   23.9440   11.1360   15.1310 C   0  0  0  0  0  0  0  0  0  0  0  0
   24.1350   12.2210   14.2810 C   0  0  0  0  0  0  0  0  0  0  0  0
   23.3180   13.2930   14.4140 F   0  0  0  0  0  0  0  0  0  0  0  0
   25.0810   12.2570   13.2920 C   0  0  0  0  0  0  0  0  0  0  0  0
   25.8520   11.1300   13.1360 C   0  0  0  0  0  0  0  0  0  0  0  0
   26.7780   11.1090   12.1300 F   0  0  0  0  0  0  0  0  0  0  0  0
   25.7170   10.0190   13.9220 C   0  0  0  0  0  0  0  0  0  0  0  0
   24.7580   10.0310   14.9150 C   0  0  0  0  0  0  0  0  0  0  0  0
  2  1  1  6
  3  2  1  0
  4  2  1  0
  5  2  1  0
  6  5  1  0
  7  6  1  0
  8  7  1  0
  9  8  1  0
 10  7  1  0
 11 10  1  0
 12  9  1  0
 12 11  1  0
 13 12  1  6
 14 13  1  0
 15 14  1  0
 16 13  1  0
 17 16  1  0
 18 17  1  6
 18 15  1  0
 19 18  1  0
 19 20  1  6
 21 19  1  0
 22 19  1  0
 23 22  1  0
 24 23  1  0
 25 24  1  0
 26 25  1  0
 27 26  1  0
 28 27  1  0
 28 24  1  0
 22 29  1  1
 30 22  1  0
 31 30  1  0
 32 31  1  0
 33 31  1  0
 34 33  1  0
 35 34  1  0
 36 34  1  0
 37 36  1  0
 37 30  1  0
M  END
$$$$
