
     RDKit          3D

 19 18  0  0  0  0  0  0  0  0999 V2000
   27.6230   -5.4560   24.7760 C   0  0  0  0  0  0  0  0  0  0  0  0
   28.5570   -5.7740   23.9190 C   0  0  0  0  0  0  0  0  0  0  0  0
   29.2920   -7.1000   23.9420 C   0  0  0  0  0  0  0  0  0  0  0  0
   28.6110   -7.8660   21.7960 C   0  0  0  0  0  0  0  0  0  0  0  0
   27.7280   -9.0290   22.2300 C   0  0  0  0  0  0  0  0  0  0  0  0
   25.9390   -2.1260   16.8320 C   0  0  0  0  0  0  0  0  0  0  0  0
   26.0530   -0.7040   17.3380 C   0  0  0  0  0  0  0  0  0  0  0  0
   26.6570   -0.4190   18.4730 C   0  0  0  0  0  0  0  0  0  0  0  0
   27.2510   -1.5530   19.2800 C   0  0  0  0  0  0  0  0  0  0  0  0
   27.6940   -1.2130   20.6920 C   0  0  0  0  0  0  0  0  0  0  0  0
   27.5930   -2.5120   21.4660 C   0  0  0  0  0  0  0  0  0  0  0  0
   26.6880   -2.7010   22.3970 C   0  0  0  0  0  0  0  0  0  0  0  0
   26.6280   -4.0550   23.0940 C   0  0  0  0  0  0  0  0  0  0  0  0
   26.9540   -4.1080   24.5830 C   0  0  0  0  0  0  0  0  0  0  0  0
   27.2020   -6.4130   25.8780 C   0  0  0  0  0  0  0  0  0  0  0  0
   28.5660   -3.6240   21.1000 C   0  0  0  0  0  0  0  0  0  0  0  0
   25.4640    0.3900   16.4840 C   0  0  0  0  0  0  0  0  0  0  0  0
   29.6380   -7.3820   22.6160 O   0  0  0  0  0  0  0  0  0  0  0  0
   28.4220   -7.3670   20.7430 O   0  0  0  0  0  0  0  0  0  0  0  0
  2  1  1  0
  3  2  1  0
  5  4  1  0
  7  6  1  0
  8  7  1  0
  9  8  1  0
 10  9  1  0
 11 10  1  0
 12 11  1  0
 13 12  1  0
 14 13  1  0
 14  1  1  0
 15  1  1  0
 16 11  1  0
 17  7  1  0
 18  4  1  0
 18  3  1  0
 19  4  1  0
M  END
$$$$
