
     RDKit          3D

 20 19  0  0  0  0  0  0  0  0999 V2000
  -17.9100  -17.7200   16.0450 C   0  0  0  0  0  0  0  0  0  0  0  0
  -17.0910  -17.3080   15.1880 O   0  0  0  0  0  0  0  0  0  0  0  0
  -18.9790  -17.0780   16.1810 O   0  0  0  0  0  0  0  0  0  0  0  0
  -17.6260  -18.9830   16.8750 C   0  0  0  0  0  0  0  0  0  0  0  0
  -16.4400  -18.6900   17.7750 C   0  0  0  0  0  0  0  0  0  0  0  0
  -16.8030  -17.6470   18.8290 C   0  0  0  0  0  0  0  0  0  0  0  0
  -17.4040  -18.2080   20.1160 C   0  0  0  0  0  0  0  0  0  0  0  0
  -17.9220  -17.1140   21.0680 C   0  0  0  0  0  0  0  0  0  0  0  0
  -16.7990  -16.4560   21.8680 C   0  0  0  0  0  0  0  0  0  0  0  0
  -17.3650  -15.4090   22.8170 C   0  0  0  0  0  0  0  0  0  0  0  0
  -16.2180  -14.5430   23.2720 C   0  0  0  0  0  0  0  0  0  0  0  0
  -16.3430  -13.7080   24.4660 C   0  0  0  0  0  0  0  0  0  0  0  0
  -17.6480  -13.6760   25.2270 C   0  0  0  0  0  0  0  0  0  0  0  0
  -17.5600  -12.6150   26.2980 C   0  0  0  0  0  0  0  0  0  0  0  0
  -18.8290  -12.6340   27.1400 C   0  0  0  0  0  0  0  0  0  0  0  0
  -18.9650  -11.3810   27.9730 C   0  0  0  0  0  0  0  0  0  0  0  0
  -20.1330  -11.5630   28.9200 C   0  0  0  0  0  0  0  0  0  0  0  0
  -20.1430  -10.4270   29.9250 C   0  0  0  0  0  0  0  0  0  0  0  0
  -21.1840   -9.3670   29.6050 C   0  0  0  0  0  0  0  0  0  0  0  0
  -21.1300   -8.2770   30.6730 C   0  0  0  0  0  0  0  0  0  0  0  0
  2  1  1  0
  3  1  1  0
  4  1  1  0
  5  4  1  0
  6  5  1  0
  7  6  1  0
  8  7  1  0
  9  8  1  0
 10  9  1  0
 11 10  1  0
 12 11  1  0
 13 12  1  0
 14 13  1  0
 15 14  1  0
 16 15  1  0
 17 16  1  0
 18 17  1  0
 19 18  1  0
 20 19  1  0
M  END
$$$$
