
     RDKit          3D

 16 15  0  0  0  0  0  0  0  0999 V2000
    3.0750   -2.0260   -0.2200 C   0  0  2  0  0  0  0  0  0  0  0  0
    2.3440   -2.6890   -1.0180 O   0  0  0  0  0  0  0  0  0  0  0  0
    3.7090   -2.6660    0.6650 O   0  0  0  0  0  0  0  0  0  0  0  0
    3.0590   -0.5030   -0.1910 C   0  0  0  0  0  0  0  0  0  0  0  0
    4.4700    0.0310    0.0210 C   0  0  0  0  0  0  0  0  0  0  0  0
    4.8940    0.9010   -1.1510 C   0  0  0  0  0  0  0  0  0  0  0  0
    6.3090    0.6670   -1.6480 C   0  0  0  0  0  0  0  0  0  0  0  0
    6.4300    1.0580   -3.1210 C   0  0  0  0  0  0  0  0  0  0  0  0
    7.8320    1.5260   -3.5070 C   0  0  0  0  0  0  0  0  0  0  0  0
    8.6990    0.3910   -4.0390 C   0  0  0  0  0  0  0  0  0  0  0  0
    9.4100    0.7950   -5.3250 C   0  0  0  0  0  0  0  0  0  0  0  0
    9.1800   -0.1710   -6.4940 C   0  0  0  0  0  0  0  0  0  0  0  0
    7.7160   -0.2700   -6.9250 C   0  0  0  0  0  0  0  0  0  0  0  0
    7.6050   -0.6530   -8.4040 C   0  0  0  0  0  0  0  0  0  0  0  0
    6.1970   -1.0720   -8.8090 C   0  0  0  0  0  0  0  0  0  0  0  0
    6.1960   -1.6390  -10.2160 C   0  0  0  0  0  0  0  0  0  0  0  0
  1  2  1  1
  3  1  1  0
  4  1  1  0
  5  4  1  0
  6  5  1  0
  7  6  1  0
  8  7  1  0
  9  8  1  0
 10  9  1  0
 11 10  1  0
 12 11  1  0
 13 12  1  0
 14 13  1  0
 15 14  1  0
 16 15  1  0
M  END
$$$$
